      Date: 08/13/2020      Time: 09:03:06  

     ___________________________________________________
     |                                                 |
     |  Livermore  Software  Technology  Corporation   |
     |                                                 |
     |  7374 Las Positas Road                          |
     |  Livermore, CA 94551                            |
     |  Tel: (925) 449-2500  Fax: (925) 449-2507       |
     |  www.lstc.com                                   |
     |_________________________________________________|
     |                                                 |
     |  LS-DYNA, A Program for Nonlinear Dynamic       |
     |  Analysis of Structures in Three Dimensions     |
     |  Version : smp d R11.1.0   Date: 08/12/2019     |
     |  Revision: 139588          Time: 09:16:48       |
     |                                                 |
     |  Features enabled in this version:              |
     |    Shared Memory Parallel                       |
     |    ARPACK (nonsymmetric eigensolver library)    |
     |    Interactive Graphics                         |
     |    ANSYS Database format                        |
     |    ANSYS License (ANSYS202)                     |
     |    BigID  option                                |
     |                                                 |
     |  Licensed to: Universitaet Erlangen, Lehrstuhl f|
     |  Issued by  : dynamore_05222020                 |
     |                                                 |
     |  Platform   : WINDOWS X64 (SSE2)                |
     |  OS Level   : Windows 7/8/10 & Srv 2008/2012 R2 |
     |  Compiler   : Intel Fortran XE 2017 MSVC++ 2017 |
     |  Hostname   : fautms01                          |
     |  Precision  : Double precision (I8R8)           |
     |  SVN Version: 139588                            |
     |                                                 |
     |  Unauthorized use infringes LSTC copyrights     |
     |_________________________________________________|


 Input file: D:\main\main.k                                                                  

 The native file format       : 64-bit small endian
 Memory size from command line:    20000000

 ********  notice  ********  notice  ********  notice  ********
 *                                                            *
 * This is the LS-DYNA Finite Element code.                   *
 *                                                            *
 * Neither LSTC nor the authors assume any responsibility for *
 * the validity, accuracy, or applicability of any results    *
 * obtained from this system. Users must verify their own     *
 * results.                                                   *
 *                                                            *
 * LSTC endeavors to make the LS-DYNA code as complete,       *
 * accurate and easy to use as possible.                      *
 * Suggestions and comments are welcomed.  Please report any  *
 * errors encountered in either the documentation or results  *
 * immediately to LSTC through your site focus.               *
 *                                                            *
 * Copyright (C) 1990-2018                                    *
 * by Livermore Software Technology Corp. (LSTC)              *
 * All rights reserved                                        *
 *                                                            *
 ********  notice  ********  notice  ********  notice  ********

 Beginning of keyword reader                                   08/13/20 09:03:06
 allocating  memory to    20000000 d         580 beginning of keyword reader
 expanding   memory to       20720 d         580  

 *COMMENT
       59007.83000E-6        44         8        44         0         8         2
          0         0         0         1         0         0
   110.7435   80.1938  0.133598 0.3757133 0.3571853  19.99999         1   164.206

 *COMMENT
          0shear_bottom_x
          3         2         2         1       1.0         01.00000E28       0.0

 *COMMENT
 boxsolid
          1         1         4         0         0         0         0         0

 *COMMENT
 auto created
          2         1         4         0         0         0         0         0

 Open include file: main_-_chooseNumEx.k

 *COMMENT
 D:\Numerical_examples_in_LS-Dyna\necking_of_a_rod-3D\rod_coarse_numExS05.k

 *COMMENT
 D:\Numerical_examples_in_LS-Dyna\necking_of_a_rod-3D\rod_numExS05.k

 *COMMENT
 D:\Numerical_examples_in_LS-Dyna\necking_of_a_rod-ax\rod_ax_numExS05.k

 *COMMENT
 D:\Numerical_examples_in_LS-Dyna\Shear_OET\Shear_OET_numExS05.k

 *COMMENT
 D:\Numerical_examples_in_LS-Dyna\L-shape_cubes-3D\L-shape_cubes_numExS05.k

 *COMMENT
 D:\Numerical_examples_in_LS-Dyna\OneElementTest\oneElementTest_numExS05.k

 *COMMENT
 D:\Numerical_examples_in_LS-Dyna\BrickElementTest\BrickElTest_numExS05.k

 *COMMENT
 D:\Numerical_examples_in_LS-Dyna\TensionCompressionT\TenComp_numExS05.k

 *COMMENT
 D:\Numerical_examples_in_LS-Dyna\QPlate\QPlate-3400el_numExS05.k

 *COMMENT
 D:\Numerical_examples_in_LS-Dyna\Dis8elCube\Dis8elCube_numExS05.k

 *COMMENT
 D:\Numerical_examples_in_LS-Dyna\DisOneElementTest\DisOneElementTest_numExS05.k

 *COMMENT
 D:\Numerical_examples_in_LS-Dyna\OET-ax\OET-ax_numExS05.k

 *COMMENT
 D:\Numerical_examples_in_LS-Dyna\Dis4el-ax\Dis4el-ax_numExS05.k

 *COMMENT
 D:\Numerical_examples_in_LS-Dyna\cube\cube_numExS05.k

 Open include file: D:\Numerical_examples_in_LS-Dyna\tensSpeci_SEP1230\tensSpeci_SEP1230_numExS05.k

 Open include file: D:\Materialkarten_A01\#_81001000_HCT590X.inc

 Open include file: D:\Materialkarten_A01\#_82001000_AW6014_T4.inc
 expanding   memory to      162992 d       58582  
 expanding   memory to      192992 d       58582  
 expanding   memory to      252992 d       58582  
 expanding   memory to      273092 d       58582  
 expanding   memory to      310828 d       58582  
 expanding   memory to      336364 d       58582  
 expanding   memory to      356694 d       58582  
 expanding   memory to      426694 d       58582  
 expanding   memory to      450734 d       58582  
 
 *** Warning 10944 (KEY+944)
     More than one user material type 44 is used. Parameters
     from cards 1 & 2 of the first user material type 44
     defined will be used instead.
     Parameters from cards 1 & 2 of material ID 4
     will be ignored except for MID, RO, MT.

 Open include file: main_-_chooseNumEx.k

 Open include file: D:\Numerical_examples_in_LS-Dyna\tensSpeci_SEP1230\tensSpeci_SEP1230_numExS05.k

 Open include file: D:\Materialkarten_A01\#_81001000_HCT590X.inc

 Open include file: D:\Materialkarten_A01\#_82001000_AW6014_T4.inc
 expanding   memory to      474026 d       66598  
 expanding   memory to      578030 d       66598  
 expanding   memory to      611643 d      163510  
 expanding   memory to      637122 d      163510  
 expanding   memory to      659122 d      163510  
 expanding   memory to      706735 d      163510  

 Memory required to process keyword     :      706735 
 contracting memory to           1 d       66598 end of keyword reader

 LS-DYNA will perform a structural only analysis 

 LS-DYNA keyword deck by LS-PrePost                                      
                         ls-dyna smp.139588 d           date 08/12/2019
 
 *** Warning 60337 (IMP+337)
     Full Newton (ILIMIT=1) for Implicit has been chosen. MAXREF has been left
     at the default of 15. This is inefficient so MAXREF has been reset to 165.
 expanding   memory to        2383 d        8599 material, node and element data
 expanding   memory to        2457 d        8608 mat add general damage 0
 expanding   memory to        2467 d        8608 material added airbag porosity leakage 
 expanding   memory to        2470 d        8608 material properties
 
 *** Warning 20471 (STR+471)
     Hourglass formulation for part # 1
     has been switched to type 6 since other
     formulations do not have a stiffness matrix.
 expanding   memory to       62194 d       18311 element data for composite material
 expanding   memory to       72261 d      382221 gradient of damage data
 expanding   memory to      147686 d      382223 user control for contact interfaces
 contracting memory to      147667 d      382223 thermal expansion 0
 expanding   memory to      156334 d      382229 temp index array for node sorting
 contracting memory to      147667 d      390900 just because?
 expanding   memory to      153051 d      408237 arbitrary element numbering input
 contracting memory to      147667 d      422009 thick shell int. pt. strain
 expanding   memory to      214707 d      422011 spc cards
 expanding   memory to      562243 d      431045 process element material data
 expanding   memory to      562286 d      431044 cross-sectional force definitions 1
 expanding   memory to      565349 d      431044 cross-sectional force definitions 2
 expanding   memory to      568351 d      431048 time history data
 expanding   memory to      574285 d      431048 user_define_loading_set
 expanding   memory to      576487 d      431048 regularize time history data
 contracting memory to      574289 d      431048 *DEFINE_ELEMENT_DEATH
 contracting memory to      574289 d      431048 rigidwall definitions
 expanding   memory to      608973 d      431048 nodal groups for resultant forces
 contracting memory to      576765 d      431048 nodal group data
 expanding   memory to      585673 d      431048 nodal constraint sets
 expanding   memory to      614668 d      431048 contact interfaces
 expanding   memory to      633002 d      431048 implicit contact 1
 contracting memory to      615668 d      431434 contact segment data 1
 expanding   memory to      684741 d      431434 contact segment data 3
 contracting memory to      614668 d      785300 contact definition
 expanding   memory to      614677 d      785301 rigid body
 expanding   memory to      614681 d      788149 contact friction
 expanding   memory to      614682 d      788149 implicit friction
 expanding   memory to      614697 d      788149 joints
 contracting memory to      614697 d      788749 accelerometers
 expanding   memory to      614797 d      788749 rigid bodies for disp. termination
 contracting memory to      614797 d      814750 transformation to move nodes
 expanding   memory to      614798 d      823468 mat add cohesive 0
 expanding   memory to      614804 d      823468 sensor_control for curve
 expanding   memory to      614805 d      823468 flexible body 2
 contracting memory to      614805 d      823468 implicit joints
 expanding   memory to      614808 d      823468 implicit explicit hybrid dummy
 expanding   memory to      623475 d      823468 implicit allocation 1
 expanding   memory to      623482 d      823468 implicit allocation 2
 expanding   memory to      675484 d      823468 implicit allocation 4
 expanding   memory to      684152 d      823468 implicit allocation 5
 expanding   memory to     1457051 d      823568 implicit allocation 6

 S t o r a g e   a l l o c a t i o n   

 Memory required to begin solution      :    1458K
 Linear Alg dynamically allocated memory:      40K
 Additional dynamically allocated memory:     815K
                                   Total:    2312K
       1 t 0.0000E+00 dt 1.00E+00 flush i/o buffers            08/13/20 09:03:07
       1 t 0.0000E+00 dt 1.00E+00 write d3plot file            08/13/20 09:03:07

 BEGIN implicit statics  step      1 t= 1.0000E+00             08/13/20 09:03:07
 ============================================================
                time =  1.00000E+00
   current step size =  1.00000E+00
 expanding   memory to     1561059 d      818277 implicit matrix assembly allocation


     ================================================
     ==            IMPLICIT USAGE ALERT            ==
     ================================================
     == Memory Management for Implicit has changed ==
     == after R10.  Please use:                    ==
     ==       memory=     2M                       ==
     ================================================

 Iteration:   1     *|du|/|u| =  1.0000000E+00     *Ei/E0 =  1.0000000E+00

 ITERATION LIMIT reached, automatically REFORMING stiffness matrix...
 Iteration:   2     *|du|/|u| =  5.2197253E-05     *Ei/E0 =  2.2369261E-10

 Equilibrium iterations summary step      1 t= 1.0000E+00      08/13/20 09:03:09
    Number of iterations to converge         =           2
    Number of stiffness reformations         =           1
    Number of right hand side evaluations    =           4

 Convergence detected as a combination of
     1. Current  maximum   displacement translational norm           
        Value =   3.0641E-06 vs Tolerance =   7.9862E-03
     2. Ratio of euclidian displacement translational norms          
        Value =   5.2197E-05 vs Tolerance =   1.0000E-03
     3. Ratio of euclidian energy       translational norms          
        Value =   2.2369E-10 vs Tolerance =   1.0000E-04
       7 t 1.0000E+00 dt 1.00E+00 write d3plot file            08/13/20 09:03:09

 BEGIN implicit statics  step      2 t= 2.5849E+00             08/13/20 09:03:09
 ============================================================
                time =  2.58489E+00
   current step size =  1.58489E+00
 Iteration:   1     *|du|/|u| =  6.1314453E-01     *Ei/E0 =  1.0000000E+00

 ITERATION LIMIT reached, automatically REFORMING stiffness matrix...
 Iteration:   2     *|du|/|u| =  9.0221573E-02     *Ei/E0 =  1.6267685E-04

 ITERATION LIMIT reached, automatically REFORMING stiffness matrix...
 Iteration:   3     *|du|/|u| =  2.9997502E-02     *Ei/E0 =  6.1257100E-05

 Equilibrium iterations summary step      2 t= 2.5849E+00      08/13/20 09:03:11
    Number of iterations to converge         =           3
    Number of stiffness reformations         =           2
    Number of right hand side evaluations    =          10

 Convergence detected as a combination of
     1. Current  maximum   displacement translational norm           
        Value =   6.5601E-03 vs Tolerance =   7.9862E-03
      18 t 2.5849E+00 dt 1.58E+00 write d3plot file            08/13/20 09:03:11

 BEGIN implicit statics  step      3 t= 5.0968E+00             08/13/20 09:03:11
 ============================================================
                time =  5.09678E+00
   current step size =  2.51189E+00
 Iteration:   1     *|du|/|u| =  5.0688822E-01     *Ei/E0 =  1.0000000E+00

 ITERATION LIMIT reached, automatically REFORMING stiffness matrix...
 Iteration:   2     *|du|/|u| =  9.9574340E-03     *Ei/E0 =  8.4172388E-06

 Equilibrium iterations summary step      3 t= 5.0968E+00      08/13/20 09:03:12
    Number of iterations to converge         =           2
    Number of stiffness reformations         =           1
    Number of right hand side evaluations    =           4

 Convergence detected as a combination of
     1. Current  maximum   displacement translational norm           
        Value =   7.6089E-03 vs Tolerance =   7.9862E-03
      23 t 5.0968E+00 dt 2.51E+00 write d3plot file            08/13/20 09:03:13

 BEGIN implicit statics  step      4 t= 8.0968E+00             08/13/20 09:03:13
 ============================================================
                time =  8.09678E+00
   current step size =  3.00000E+00
 Iteration:   1     *|du|/|u| =  3.7586142E-01     *Ei/E0 =  1.0000000E+00

 ITERATION LIMIT reached, automatically REFORMING stiffness matrix...
 Iteration:   2     *|du|/|u| =  4.7806564E-03     *Ei/E0 =  3.2919023E-06

 Equilibrium iterations summary step      4 t= 8.0968E+00      08/13/20 09:03:14
    Number of iterations to converge         =           2
    Number of stiffness reformations         =           1
    Number of right hand side evaluations    =           4

 Convergence detected as a combination of
     1. Current  maximum   displacement translational norm           
        Value =   5.8690E-03 vs Tolerance =   7.9862E-03
      28 t 8.0968E+00 dt 3.00E+00 write d3plot file            08/13/20 09:03:14

 BEGIN implicit statics  step      5 t= 1.1097E+01             08/13/20 09:03:14
 ============================================================
                time =  1.10968E+01
   current step size =  3.00000E+00
 Iteration:   1     *|du|/|u| =  2.7283999E-01     *Ei/E0 =  9.9992522E-01

 ITERATION LIMIT reached, automatically REFORMING stiffness matrix...
 Iteration:   2     *|du|/|u| =  2.0057145E-03     *Ei/E0 =  1.5000588E-06

 Equilibrium iterations summary step      5 t= 1.1097E+01      08/13/20 09:03:15
    Number of iterations to converge         =           2
    Number of stiffness reformations         =           1
    Number of right hand side evaluations    =           4

 Convergence detected as a combination of
     1. Current  maximum   displacement translational norm           
        Value =   3.3788E-03 vs Tolerance =   7.9862E-03
      33 t 1.1097E+01 dt 3.00E+00 write d3plot file            08/13/20 09:03:15

 BEGIN implicit statics  step      6 t= 1.4097E+01             08/13/20 09:03:15
 ============================================================
                time =  1.40968E+01
   current step size =  3.00000E+00
 Iteration:   1     *|du|/|u| =  2.1411555E-01     *Ei/E0 =  9.9986063E-01

 ITERATION LIMIT reached, automatically REFORMING stiffness matrix...
 Iteration:   2     *|du|/|u| =  1.0410430E-03     *Ei/E0 =  7.3689357E-07

 Equilibrium iterations summary step      6 t= 1.4097E+01      08/13/20 09:03:16
    Number of iterations to converge         =           2
    Number of stiffness reformations         =           1
    Number of right hand side evaluations    =           4

 Convergence detected as a combination of
     1. Current  maximum   displacement translational norm           
        Value =   1.9292E-03 vs Tolerance =   7.9862E-03
      38 t 1.4097E+01 dt 3.00E+00 write d3plot file            08/13/20 09:03:17

 BEGIN implicit statics  step      7 t= 1.7097E+01             08/13/20 09:03:17
 ============================================================
                time =  1.70968E+01
   current step size =  3.00000E+00
 Iteration:   1     *|du|/|u| =  1.7622866E-01     *Ei/E0 =  9.9980267E-01

 ITERATION LIMIT reached, automatically REFORMING stiffness matrix...
 Iteration:   2     *|du|/|u| =  6.5341961E-04     *Ei/E0 =  4.0040842E-07

 Equilibrium iterations summary step      7 t= 1.7097E+01      08/13/20 09:03:18
    Number of iterations to converge         =           2
    Number of stiffness reformations         =           1
    Number of right hand side evaluations    =           4

 Convergence detected as a combination of
     1. Current  maximum   displacement translational norm           
        Value =   1.3031E-03 vs Tolerance =   7.9862E-03
     2. Ratio of euclidian displacement translational norms          
        Value =   6.5342E-04 vs Tolerance =   1.0000E-03
     3. Ratio of euclidian energy       translational norms          
        Value =   4.0041E-07 vs Tolerance =   1.0000E-04
      43 t 1.7097E+01 dt 3.00E+00 write d3plot file            08/13/20 09:03:18

 BEGIN implicit statics  step      8 t= 2.0097E+01             08/13/20 09:03:18
 ============================================================
                time =  2.00968E+01
   current step size =  3.00000E+00
 Iteration:   1     *|du|/|u| =  1.4978234E-01     *Ei/E0 =  9.9975040E-01

 ITERATION LIMIT reached, automatically REFORMING stiffness matrix...
 Iteration:   2     *|du|/|u| =  4.7144853E-04     *Ei/E0 =  2.3195207E-07

 Equilibrium iterations summary step      8 t= 2.0097E+01      08/13/20 09:03:19
    Number of iterations to converge         =           2
    Number of stiffness reformations         =           1
    Number of right hand side evaluations    =           4

 Convergence detected as a combination of
     1. Current  maximum   displacement translational norm           
        Value =   9.6821E-04 vs Tolerance =   7.9862E-03
     2. Ratio of euclidian displacement translational norms          
        Value =   4.7145E-04 vs Tolerance =   1.0000E-03
     3. Ratio of euclidian energy       translational norms          
        Value =   2.3195E-07 vs Tolerance =   1.0000E-04
      48 t 2.0097E+01 dt 3.00E+00 write d3plot file            08/13/20 09:03:19

 BEGIN implicit statics  step      9 t= 2.3097E+01             08/13/20 09:03:19
 ============================================================
                time =  2.30968E+01
   current step size =  3.00000E+00
 Iteration:   1     *|du|/|u| =  1.3025165E-01     *Ei/E0 =  9.9970306E-01

 ITERATION LIMIT reached, automatically REFORMING stiffness matrix...
 Iteration:   2     *|du|/|u| =  4.1240526E-04     *Ei/E0 =  1.5437094E-07

 Equilibrium iterations summary step      9 t= 2.3097E+01      08/13/20 09:03:20
    Number of iterations to converge         =           2
    Number of stiffness reformations         =           1
    Number of right hand side evaluations    =           4

 Convergence detected as a combination of
     1. Current  maximum   displacement translational norm           
        Value =   8.4483E-04 vs Tolerance =   7.9862E-03
     2. Ratio of euclidian displacement translational norms          
        Value =   4.1241E-04 vs Tolerance =   1.0000E-03
     3. Ratio of euclidian energy       translational norms          
        Value =   1.5437E-07 vs Tolerance =   1.0000E-04
      53 t 2.3097E+01 dt 3.00E+00 write d3plot file            08/13/20 09:03:21

 BEGIN implicit statics  step     10 t= 2.6097E+01             08/13/20 09:03:21
 ============================================================
                time =  2.60968E+01
   current step size =  3.00000E+00
 Iteration:   1     *|du|/|u| =  1.1524103E-01     *Ei/E0 =  9.9966011E-01

 ITERATION LIMIT reached, automatically REFORMING stiffness matrix...
 Iteration:   2     *|du|/|u| =  3.8520798E-04     *Ei/E0 =  9.8844413E-08

 Equilibrium iterations summary step     10 t= 2.6097E+01      08/13/20 09:03:22
    Number of iterations to converge         =           2
    Number of stiffness reformations         =           1
    Number of right hand side evaluations    =           4

 Convergence detected as a combination of
     1. Current  maximum   displacement translational norm           
        Value =   8.9920E-04 vs Tolerance =   7.9862E-03
     2. Ratio of euclidian displacement translational norms          
        Value =   3.8521E-04 vs Tolerance =   1.0000E-03
     3. Ratio of euclidian energy       translational norms          
        Value =   9.8844E-08 vs Tolerance =   1.0000E-04
      58 t 2.6097E+01 dt 3.00E+00 write d3plot file            08/13/20 09:03:22

 BEGIN implicit statics  step     11 t= 2.9097E+01             08/13/20 09:03:22
 ============================================================
                time =  2.90968E+01
   current step size =  3.00000E+00
 Iteration:   1     *|du|/|u| =  1.0336525E-01     *Ei/E0 =  9.9962102E-01

 ITERATION LIMIT reached, automatically REFORMING stiffness matrix...
 Iteration:   2     *|du|/|u| =  3.9643856E-04     *Ei/E0 =  8.2837787E-08

 Equilibrium iterations summary step     11 t= 2.9097E+01      08/13/20 09:03:23
    Number of iterations to converge         =           2
    Number of stiffness reformations         =           1
    Number of right hand side evaluations    =           4

 Convergence detected as a combination of
     1. Current  maximum   displacement translational norm           
        Value =   1.0752E-03 vs Tolerance =   7.9862E-03
     2. Ratio of euclidian displacement translational norms          
        Value =   3.9644E-04 vs Tolerance =   1.0000E-03
     3. Ratio of euclidian energy       translational norms          
        Value =   8.2838E-08 vs Tolerance =   1.0000E-04
      63 t 2.9097E+01 dt 3.00E+00 write d3plot file            08/13/20 09:03:23

 BEGIN implicit statics  step     12 t= 3.2097E+01             08/13/20 09:03:23
 ============================================================
                time =  3.20968E+01
   current step size =  3.00000E+00
 Iteration:   1     *|du|/|u| =  9.3724506E-02     *Ei/E0 =  9.9958548E-01

 ITERATION LIMIT reached, automatically REFORMING stiffness matrix...
 Iteration:   2     *|du|/|u| =  4.3772585E-04     *Ei/E0 =  8.5097173E-08

 Equilibrium iterations summary step     12 t= 3.2097E+01      08/13/20 09:03:24
    Number of iterations to converge         =           2
    Number of stiffness reformations         =           1
    Number of right hand side evaluations    =           4

 Convergence detected as a combination of
     1. Current  maximum   displacement translational norm           
        Value =   1.3433E-03 vs Tolerance =   7.9862E-03
     2. Ratio of euclidian displacement translational norms          
        Value =   4.3773E-04 vs Tolerance =   1.0000E-03
     3. Ratio of euclidian energy       translational norms          
        Value =   8.5097E-08 vs Tolerance =   1.0000E-04
      68 t 3.2097E+01 dt 3.00E+00 write d3plot file            08/13/20 09:03:25

 BEGIN implicit statics  step     13 t= 3.5097E+01             08/13/20 09:03:25
 ============================================================
                time =  3.50968E+01
   current step size =  3.00000E+00
 Iteration:   1     *|du|/|u| =  8.5746964E-02     *Ei/E0 =  9.9955317E-01

 ITERATION LIMIT reached, automatically REFORMING stiffness matrix...
 Iteration:   2     *|du|/|u| =  4.8503035E-04     *Ei/E0 =  8.8958128E-08

 Equilibrium iterations summary step     13 t= 3.5097E+01      08/13/20 09:03:26
    Number of iterations to converge         =           2
    Number of stiffness reformations         =           1
    Number of right hand side evaluations    =           4

 Convergence detected as a combination of
     1. Current  maximum   displacement translational norm           
        Value =   1.6715E-03 vs Tolerance =   7.9862E-03
     2. Ratio of euclidian displacement translational norms          
        Value =   4.8503E-04 vs Tolerance =   1.0000E-03
     3. Ratio of euclidian energy       translational norms          
        Value =   8.8958E-08 vs Tolerance =   1.0000E-04
      73 t 3.5097E+01 dt 3.00E+00 write d3plot file            08/13/20 09:03:26

 BEGIN implicit statics  step     14 t= 3.8097E+01             08/13/20 09:03:26
 ============================================================
                time =  3.80968E+01
   current step size =  3.00000E+00
 Iteration:   1     *|du|/|u| =  7.9037849E-02     *Ei/E0 =  9.9952383E-01

 ITERATION LIMIT reached, automatically REFORMING stiffness matrix...
 Iteration:   2     *|du|/|u| =  5.5256195E-04     *Ei/E0 =  1.0614625E-07

 Equilibrium iterations summary step     14 t= 3.8097E+01      08/13/20 09:03:27
    Number of iterations to converge         =           2
    Number of stiffness reformations         =           1
    Number of right hand side evaluations    =           4

 Convergence detected as a combination of
     1. Current  maximum   displacement translational norm           
        Value =   2.1028E-03 vs Tolerance =   7.9862E-03
     2. Ratio of euclidian displacement translational norms          
        Value =   5.5256E-04 vs Tolerance =   1.0000E-03
     3. Ratio of euclidian energy       translational norms          
        Value =   1.0615E-07 vs Tolerance =   1.0000E-04
      78 t 3.8097E+01 dt 3.00E+00 write d3plot file            08/13/20 09:03:27

 BEGIN implicit statics  step     15 t= 4.1097E+01             08/13/20 09:03:27
 ============================================================
                time =  4.10968E+01
   current step size =  3.00000E+00
 Iteration:   1     *|du|/|u| =  7.3322348E-02     *Ei/E0 =  9.9949723E-01

 ITERATION LIMIT reached, automatically REFORMING stiffness matrix...
 Iteration:   2     *|du|/|u| =  6.3727311E-04     *Ei/E0 =  1.3594006E-07

 Equilibrium iterations summary step     15 t= 4.1097E+01      08/13/20 09:03:28
    Number of iterations to converge         =           2
    Number of stiffness reformations         =           1
    Number of right hand side evaluations    =           4

 Convergence detected as a combination of
     1. Current  maximum   displacement translational norm           
        Value =   2.6514E-03 vs Tolerance =   7.9862E-03
     2. Ratio of euclidian displacement translational norms          
        Value =   6.3727E-04 vs Tolerance =   1.0000E-03
     3. Ratio of euclidian energy       translational norms          
        Value =   1.3594E-07 vs Tolerance =   1.0000E-04
      83 t 4.1097E+01 dt 3.00E+00 write d3plot file            08/13/20 09:03:29

 BEGIN implicit statics  step     16 t= 4.4097E+01             08/13/20 09:03:29
 ============================================================
                time =  4.40968E+01
   current step size =  3.00000E+00
 Iteration:   1     *|du|/|u| =  6.8397814E-02     *Ei/E0 =  9.9947318E-01

 ITERATION LIMIT reached, automatically REFORMING stiffness matrix...
 Iteration:   2     *|du|/|u| =  7.4796742E-04     *Ei/E0 =  1.8174400E-07

 Equilibrium iterations summary step     16 t= 4.4097E+01      08/13/20 09:03:30
    Number of iterations to converge         =           2
    Number of stiffness reformations         =           1
    Number of right hand side evaluations    =           4

 Convergence detected as a combination of
     1. Current  maximum   displacement translational norm           
        Value =   3.3888E-03 vs Tolerance =   7.9862E-03
     2. Ratio of euclidian displacement translational norms          
        Value =   7.4797E-04 vs Tolerance =   1.0000E-03
     3. Ratio of euclidian energy       translational norms          
        Value =   1.8174E-07 vs Tolerance =   1.0000E-04
      88 t 4.4097E+01 dt 3.00E+00 write d3plot file            08/13/20 09:03:30

 BEGIN implicit statics  step     17 t= 4.7097E+01             08/13/20 09:03:30
 ============================================================
                time =  4.70968E+01
   current step size =  3.00000E+00
 Iteration:   1     *|du|/|u| =  6.4113013E-02     *Ei/E0 =  9.9945152E-01

 ITERATION LIMIT reached, automatically REFORMING stiffness matrix...
 Iteration:   2     *|du|/|u| =  8.8857834E-04     *Ei/E0 =  2.4760842E-07

 Equilibrium iterations summary step     17 t= 4.7097E+01      08/13/20 09:03:31
    Number of iterations to converge         =           2
    Number of stiffness reformations         =           1
    Number of right hand side evaluations    =           4

 Convergence detected as a combination of
     1. Current  maximum   displacement translational norm           
        Value =   4.3935E-03 vs Tolerance =   7.9862E-03
     2. Ratio of euclidian displacement translational norms          
        Value =   8.8858E-04 vs Tolerance =   1.0000E-03
     3. Ratio of euclidian energy       translational norms          
        Value =   2.4761E-07 vs Tolerance =   1.0000E-04
      93 t 4.7097E+01 dt 3.00E+00 write d3plot file            08/13/20 09:03:31

 BEGIN implicit statics  step     18 t= 5.0097E+01             08/13/20 09:03:31
 ============================================================
                time =  5.00968E+01
   current step size =  3.00000E+00
 Iteration:   1     *|du|/|u| =  6.0359714E-02     *Ei/E0 =  9.9943211E-01

 ITERATION LIMIT reached, automatically REFORMING stiffness matrix...
 Iteration:   2     *|du|/|u| =  1.0888028E-03     *Ei/E0 =  3.5847225E-07

 Equilibrium iterations summary step     18 t= 5.0097E+01      08/13/20 09:03:32
    Number of iterations to converge         =           2
    Number of stiffness reformations         =           1
    Number of right hand side evaluations    =           4

 Convergence detected as a combination of
     1. Current  maximum   displacement translational norm           
        Value =   5.8623E-03 vs Tolerance =   7.9862E-03
      98 t 5.0097E+01 dt 3.00E+00 write d3plot file            08/13/20 09:03:33

 BEGIN implicit statics  step     19 t= 5.3097E+01             08/13/20 09:03:33
 ============================================================
                time =  5.30968E+01
   current step size =  3.00000E+00
 Iteration:   1     *|du|/|u| =  5.7058499E-02     *Ei/E0 =  9.9941486E-01

 ITERATION LIMIT reached, automatically REFORMING stiffness matrix...
 Iteration:   2     *|du|/|u| =  1.3984720E-03     *Ei/E0 =  5.6641866E-07

 ITERATION LIMIT reached, automatically REFORMING stiffness matrix...
 Iteration:   3     *|du|/|u| =  7.3730930E-04     *Ei/E0 =  2.0272247E-07

 Equilibrium iterations summary step     19 t= 5.3097E+01      08/13/20 09:03:34
    Number of iterations to converge         =           3
    Number of stiffness reformations         =           2
    Number of right hand side evaluations    =           6

 Convergence detected as a combination of
     1. Current  maximum   displacement translational norm           
        Value =   5.2726E-03 vs Tolerance =   7.9862E-03
     2. Ratio of euclidian displacement translational norms          
        Value =   7.3731E-04 vs Tolerance =   1.0000E-03
     3. Ratio of euclidian energy       translational norms          
        Value =   2.0272E-07 vs Tolerance =   1.0000E-04
     105 t 5.3097E+01 dt 3.00E+00 write d3plot file            08/13/20 09:03:35

 BEGIN implicit statics  step     20 t= 5.6097E+01             08/13/20 09:03:35
 ============================================================
                time =  5.60968E+01
   current step size =  3.00000E+00
 Iteration:   1     *|du|/|u| =  5.3932772E-02     *Ei/E0 =  9.9939865E-01

 ITERATION LIMIT reached, automatically REFORMING stiffness matrix...
 Iteration:   2     *|du|/|u| =  1.4592683E-03     *Ei/E0 =  4.9175357E-07

 Equilibrium iterations summary step     20 t= 5.6097E+01      08/13/20 09:03:36
    Number of iterations to converge         =           2
    Number of stiffness reformations         =           1
    Number of right hand side evaluations    =           4

 Convergence detected as a combination of
     1. Current  maximum   displacement translational norm           
        Value =   6.8324E-03 vs Tolerance =   7.9862E-03
     110 t 5.6097E+01 dt 3.00E+00 write d3plot file            08/13/20 09:03:36

 BEGIN implicit statics  step     21 t= 5.9097E+01             08/13/20 09:03:36
 ============================================================
                time =  5.90968E+01
   current step size =  3.00000E+00
 Iteration:   1     *|du|/|u| =  5.1577444E-02     *Ei/E0 =  9.9938620E-01

 ITERATION LIMIT reached, automatically REFORMING stiffness matrix...
 Iteration:   2     *|du|/|u| =  3.7621915E-03     *Ei/E0 =  1.8192120E-06

 ITERATION LIMIT reached, automatically REFORMING stiffness matrix...
 Iteration:   3     *|du|/|u| =  6.1628746E-03     *Ei/E0 =  5.4226265E-06

 ITERATION LIMIT reached, automatically REFORMING stiffness matrix...
 Iteration:   4     *|du|/|u| =  5.8359210E-04     *Ei/E0 =  1.8851867E-07

 Equilibrium iterations summary step     21 t= 5.9097E+01      08/13/20 09:03:39
    Number of iterations to converge         =           4
    Number of stiffness reformations         =           3
    Number of right hand side evaluations    =          12

 Convergence detected as a combination of
     1. Current  maximum   displacement translational norm           
        Value =   4.2906E-03 vs Tolerance =   7.9862E-03
     2. Ratio of euclidian displacement translational norms          
        Value =   5.8359E-04 vs Tolerance =   1.0000E-03
     3. Ratio of euclidian energy       translational norms          
        Value =   1.8852E-07 vs Tolerance =   1.0000E-04
     123 t 5.9097E+01 dt 3.00E+00 write d3plot file            08/13/20 09:03:39

 BEGIN implicit statics  step     22 t= 6.2097E+01             08/13/20 09:03:39
 ============================================================
                time =  6.20968E+01
   current step size =  3.00000E+00
 Iteration:   1     *|du|/|u| =  4.9093276E-02     *Ei/E0 =  9.9937351E-01

 ITERATION LIMIT reached, automatically REFORMING stiffness matrix...
 Iteration:   2     *|du|/|u| =  9.8921378E-03     *Ei/E0 =  6.6988836E-06

 ITERATION LIMIT reached, automatically REFORMING stiffness matrix...
 Iteration:   3     *|du|/|u| =  4.0768775E-03     *Ei/E0 =  2.6215715E-06

 ITERATION LIMIT reached, automatically REFORMING stiffness matrix...
 Iteration:   4     *|du|/|u| =  7.5545330E-04     *Ei/E0 =  1.5981829E-07

 Equilibrium iterations summary step     22 t= 6.2097E+01      08/13/20 09:03:41
    Number of iterations to converge         =           4
    Number of stiffness reformations         =           3
    Number of right hand side evaluations    =          16

 Convergence detected as a combination of
     1. Current  maximum   displacement translational norm           
        Value =   4.5209E-03 vs Tolerance =   7.9862E-03
     2. Ratio of euclidian displacement translational norms          
        Value =   7.5545E-04 vs Tolerance =   1.0000E-03
     3. Ratio of euclidian energy       translational norms          
        Value =   1.5982E-07 vs Tolerance =   1.0000E-04
     140 t 6.2097E+01 dt 3.00E+00 write d3plot file            08/13/20 09:03:42

 BEGIN implicit statics  step     23 t= 6.5097E+01             08/13/20 09:03:42
 ============================================================
                time =  6.50968E+01
   current step size =  3.00000E+00
 Iteration:   1     *|du|/|u| =  4.7273122E-02     *Ei/E0 =  9.9936420E-01

 ITERATION LIMIT reached, automatically REFORMING stiffness matrix...
 
 *** Warning 60124 (IMP+124)
       2 negative eigenvalues detected
 Iteration:   2     *|du|/|u| =  1.1924629E-01     *Ei/E0 =  1.0691351E-04

 ITERATION LIMIT reached, automatically REFORMING stiffness matrix...
 
 *** Warning 60124 (IMP+124)
       2 negative eigenvalues detected
 Iteration:   3     *|du|/|u| =  6.5494644E-02     *Ei/E0 =  8.2680620E-05

 ITERATION LIMIT reached, automatically REFORMING stiffness matrix...
 
 *** Warning 60124 (IMP+124)
       2 negative eigenvalues detected
 Iteration:   4     *|du|/|u| =  5.0098814E-02     *Ei/E0 =  8.4300655E-05

 ITERATION LIMIT reached, automatically REFORMING stiffness matrix...
 
 *** Warning 60124 (IMP+124)
       2 negative eigenvalues detected
 Iteration:   5     *|du|/|u| =  4.5728919E-02     *Ei/E0 =  8.6853984E-05

 ITERATION LIMIT reached, automatically REFORMING stiffness matrix...
 
 *** Warning 60124 (IMP+124)
       2 negative eigenvalues detected
 Iteration:   6     *|du|/|u| =  4.3661631E-02     *Ei/E0 =  8.8679746E-05

 ITERATION LIMIT reached, automatically REFORMING stiffness matrix...
 
 *** Warning 60124 (IMP+124)
       2 negative eigenvalues detected
 Iteration:   7     *|du|/|u| =  4.1661586E-01     *Ei/E0 =  8.7910038E-04

 ITERATION LIMIT reached, automatically REFORMING stiffness matrix...
 
 *** Warning 60124 (IMP+124)
       2 negative eigenvalues detected
 Iteration:   8     *|du|/|u| =  2.2462466E+01     *Ei/E0 =  5.7121083E-02

 ITERATION LIMIT reached, automatically REFORMING stiffness matrix...
 
 *** Warning 60124 (IMP+124)
       1 negative eigenvalues detected
 Iteration:   9     *|du|/|u| =  1.6101566E-02     *Ei/E0 =  5.6133435E-05

 ITERATION LIMIT reached, automatically REFORMING stiffness matrix...
 
 *** Warning 60124 (IMP+124)
       1 negative eigenvalues detected
 Iteration:  10     *|du|/|u| =  1.4625135E-03     *Ei/E0 =  3.7616337E-06

 ITERATION LIMIT reached, automatically REFORMING stiffness matrix...
 
 *** Warning 60124 (IMP+124)
       1 negative eigenvalues detected
 Iteration:  11     *|du|/|u| =  1.0859419E-02     *Ei/E0 =  2.7375545E-05

 ITERATION LIMIT reached, automatically REFORMING stiffness matrix...
 
 *** Warning 60124 (IMP+124)
       1 negative eigenvalues detected
 Iteration:  12     *|du|/|u| =  2.6962066E-02     *Ei/E0 =  3.1820771E-05

 ITERATION LIMIT reached, automatically REFORMING stiffness matrix...
 
 *** Warning 60124 (IMP+124)
       1 negative eigenvalues detected
 Iteration:  13     *|du|/|u| =  2.0627509E-02     *Ei/E0 =  8.7494624E-06

 ITERATION LIMIT reached, automatically REFORMING stiffness matrix...
 
 *** Warning 60124 (IMP+124)
       1 negative eigenvalues detected
 Iteration:  14     *|du|/|u| =  9.7389355E-02     *Ei/E0 =  5.2753068E-05

 ITERATION LIMIT reached, automatically REFORMING stiffness matrix...
 
 *** Warning 60124 (IMP+124)
       1 negative eigenvalues detected
 Iteration:  15     *|du|/|u| =  9.1603374E-02     *Ei/E0 =  7.1284747E-05

 ITERATION LIMIT reached, automatically REFORMING stiffness matrix...
 
 *** Warning 60124 (IMP+124)
       1 negative eigenvalues detected
 Iteration:  16     *|du|/|u| =  7.8906348E-02     *Ei/E0 =  8.6288468E-05

 ITERATION LIMIT reached, automatically REFORMING stiffness matrix...
 
 *** Warning 60124 (IMP+124)
       1 negative eigenvalues detected
 Iteration:  17     *|du|/|u| =  7.0263028E-02     *Ei/E0 =  1.0739391E-04

 ITERATION LIMIT reached, automatically REFORMING stiffness matrix...
 
 *** Warning 60124 (IMP+124)
       1 negative eigenvalues detected
 Iteration:  18     *|du|/|u| =  6.4556256E-02     *Ei/E0 =  1.1608505E-04

 ITERATION LIMIT reached, automatically REFORMING stiffness matrix...
 Iteration:  19     *|du|/|u| =  2.7417299E+00     *Ei/E0 =  5.2197509E-03

 ITERATION LIMIT reached, automatically REFORMING stiffness matrix...
 Iteration:  20     *|du|/|u| =  6.9773964E-03     *Ei/E0 =  5.2618900E-06

 ITERATION LIMIT reached, automatically REFORMING stiffness matrix...
 Iteration:  21     *|du|/|u| =  8.0820393E-03     *Ei/E0 =  5.9701316E-06

 ITERATION LIMIT reached, automatically REFORMING stiffness matrix...
 Iteration:  22     *|du|/|u| =  5.9605269E-03     *Ei/E0 =  3.0224545E-06

 ITERATION LIMIT reached, automatically REFORMING stiffness matrix...
 Iteration:  23     *|du|/|u| =  5.1246943E-03     *Ei/E0 =  2.1531964E-06

 ITERATION LIMIT reached, automatically REFORMING stiffness matrix...
 Iteration:  24     *|du|/|u| =  6.0852138E-03     *Ei/E0 =  1.9132429E-06

 ITERATION LIMIT reached, automatically REFORMING stiffness matrix...
 Iteration:  25     *|du|/|u| =  3.8490656E-03     *Ei/E0 =  1.2052094E-06

 ITERATION LIMIT reached, automatically REFORMING stiffness matrix...
 Iteration:  26     *|du|/|u| =  6.1480216E-03     *Ei/E0 =  1.4613936E-06

 ITERATION LIMIT reached, automatically REFORMING stiffness matrix...
 Iteration:  27     *|du|/|u| =  3.6070466E-03     *Ei/E0 =  8.1860755E-07

 ITERATION LIMIT reached, automatically REFORMING stiffness matrix...
 Iteration:  28     *|du|/|u| =  4.4364414E-03     *Ei/E0 =  1.0481208E-06

 ITERATION LIMIT reached, automatically REFORMING stiffness matrix...
 Iteration:  29     *|du|/|u| =  5.5574520E-03     *Ei/E0 =  1.1654826E-06

 ITERATION LIMIT reached, automatically REFORMING stiffness matrix...
 Iteration:  30     *|du|/|u| =  4.2903004E-03     *Ei/E0 =  1.1686472E-06

 ITERATION LIMIT reached, automatically REFORMING stiffness matrix...
 Iteration:  31     *|du|/|u| =  3.7149020E-02     *Ei/E0 =  6.7194207E-06

 ITERATION LIMIT reached, automatically REFORMING stiffness matrix...
 Iteration:  32     *|du|/|u| =  3.8501702E-03     *Ei/E0 =  1.4772855E-06

 ITERATION LIMIT reached, automatically REFORMING stiffness matrix...
 
 *** Warning 60124 (IMP+124)
       1 negative eigenvalues detected
 Iteration:  33     *|du|/|u| =  2.6967257E-01     *Ei/E0 =  4.8521519E-05

 ITERATION LIMIT reached, automatically REFORMING stiffness matrix...
 
 *** Warning 60124 (IMP+124)
       1 negative eigenvalues detected
 Iteration:  34     *|du|/|u| =  1.8117685E-01     *Ei/E0 =  4.8065272E-05

 ITERATION LIMIT reached, automatically REFORMING stiffness matrix...
 
 *** Warning 60124 (IMP+124)
       1 negative eigenvalues detected
 Iteration:  35     *|du|/|u| =  1.0976996E-01     *Ei/E0 =  1.9817431E-05

 ITERATION LIMIT reached, automatically REFORMING stiffness matrix...
 
 *** Warning 60124 (IMP+124)
       1 negative eigenvalues detected
 Iteration:  36     *|du|/|u| =  1.0935231E-01     *Ei/E0 =  2.9588347E-05

 ITERATION LIMIT reached, automatically REFORMING stiffness matrix...
 
 *** Warning 60124 (IMP+124)
       1 negative eigenvalues detected
 Iteration:  37     *|du|/|u| =  1.0457252E-01     *Ei/E0 =  3.8214332E-05

 ITERATION LIMIT reached, automatically REFORMING stiffness matrix...
 
 *** Warning 60124 (IMP+124)
       1 negative eigenvalues detected
 Iteration:  38     *|du|/|u| =  9.5230181E-02     *Ei/E0 =  4.7426818E-05

 ITERATION LIMIT reached, automatically REFORMING stiffness matrix...
 
 *** Warning 60124 (IMP+124)
       1 negative eigenvalues detected
 Iteration:  39     *|du|/|u| =  2.7034371E-01     *Ei/E0 =  1.6557076E-04

 ITERATION LIMIT reached, automatically REFORMING stiffness matrix...
 
 *** Warning 60124 (IMP+124)
       1 negative eigenvalues detected
 Iteration:  40     *|du|/|u| =  1.3439412E-01     *Ei/E0 =  1.0433071E-04

 ITERATION LIMIT reached, automatically REFORMING stiffness matrix...
 
 *** Warning 60124 (IMP+124)
       1 negative eigenvalues detected
 Iteration:  41     *|du|/|u| =  9.9239399E-02     *Ei/E0 =  8.9260040E-05

 ITERATION LIMIT reached, automatically REFORMING stiffness matrix...
 
 *** Warning 60124 (IMP+124)
       1 negative eigenvalues detected
 Iteration:  42     *|du|/|u| =  9.6132006E-02     *Ei/E0 =  8.6350627E-05

 ITERATION LIMIT reached, automatically REFORMING stiffness matrix...
 
 *** Warning 60124 (IMP+124)
       1 negative eigenvalues detected
 Iteration:  43     *|du|/|u| =  1.1802822E-01     *Ei/E0 =  8.7296802E-05

 ITERATION LIMIT reached, automatically REFORMING stiffness matrix...
 
 *** Warning 60124 (IMP+124)
       1 negative eigenvalues detected
 Iteration:  44     *|du|/|u| =  1.8454922E-01     *Ei/E0 =  8.7323983E-05

 ITERATION LIMIT reached, automatically REFORMING stiffness matrix...
 
 *** Warning 60124 (IMP+124)
       1 negative eigenvalues detected
 Iteration:  45     *|du|/|u| =  1.4127327E-01     *Ei/E0 =  1.0120655E-04

 ITERATION LIMIT reached, automatically REFORMING stiffness matrix...
 
 *** Warning 60124 (IMP+124)
       1 negative eigenvalues detected
 Iteration:  46     *|du|/|u| =  1.6445311E-01     *Ei/E0 =  1.0070053E-04

 ITERATION LIMIT reached, automatically REFORMING stiffness matrix...
 
 *** Warning 60124 (IMP+124)
       1 negative eigenvalues detected
 Iteration:  47     *|du|/|u| =  2.0702677E-01     *Ei/E0 =  8.9357605E-05

 ITERATION LIMIT reached, automatically REFORMING stiffness matrix...
 
 *** Warning 60124 (IMP+124)
       1 negative eigenvalues detected
 Iteration:  48     *|du|/|u| =  5.6222710E-01     *Ei/E0 =  5.3432589E-06

 ITERATION LIMIT reached, automatically REFORMING stiffness matrix...
 
 *** Warning 60124 (IMP+124)
       1 negative eigenvalues detected
 Iteration:  49     *|du|/|u| =  5.2552187E-01     *Ei/E0 =  3.0072853E-06

 ITERATION LIMIT reached, automatically REFORMING stiffness matrix...
 
 *** Warning 60124 (IMP+124)
       1 negative eigenvalues detected
 Iteration:  50     *|du|/|u| =  4.9397760E-01     *Ei/E0 =  1.0163772E-05

 ITERATION LIMIT reached, automatically REFORMING stiffness matrix...
 
 *** Warning 60124 (IMP+124)
       1 negative eigenvalues detected
 Iteration:  51     *|du|/|u| =  4.6000870E-01     *Ei/E0 =  1.7857389E-05

 ITERATION LIMIT reached, automatically REFORMING stiffness matrix...
 
 *** Warning 60124 (IMP+124)
       1 negative eigenvalues detected
 Iteration:  52     *|du|/|u| =  4.2037949E-01     *Ei/E0 =  2.6822714E-05

 ITERATION LIMIT reached, automatically REFORMING stiffness matrix...
 
 *** Warning 60124 (IMP+124)
       1 negative eigenvalues detected
 Iteration:  53     *|du|/|u| =  3.7696871E-01     *Ei/E0 =  3.6625111E-05

 ITERATION LIMIT reached, automatically REFORMING stiffness matrix...
 
 *** Warning 60124 (IMP+124)
       1 negative eigenvalues detected
 Iteration:  54     *|du|/|u| =  3.1215605E-01     *Ei/E0 =  5.1398294E-05

 ITERATION LIMIT reached, automatically REFORMING stiffness matrix...
 
 *** Warning 60124 (IMP+124)
       1 negative eigenvalues detected
 Iteration:  55     *|du|/|u| =  2.5284204E-01     *Ei/E0 =  6.6383813E-05

 ITERATION LIMIT reached, automatically REFORMING stiffness matrix...
 
 *** Warning 60124 (IMP+124)
       1 negative eigenvalues detected
 Iteration:  56     *|du|/|u| =  2.1580306E-01     *Ei/E0 =  7.4353130E-05

 ITERATION LIMIT reached, automatically REFORMING stiffness matrix...
 
 *** Warning 60124 (IMP+124)
       1 negative eigenvalues detected
 Iteration:  57     *|du|/|u| =  9.9166554E-02     *Ei/E0 =  1.6759008E-04

 ITERATION LIMIT reached, automatically REFORMING stiffness matrix...
 
 *** Warning 60124 (IMP+124)
       1 negative eigenvalues detected
 Iteration:  58     *|du|/|u| =  1.4695265E-01     *Ei/E0 =  2.5448025E-04

 ITERATION LIMIT reached, automatically REFORMING stiffness matrix...
 
 *** Warning 60124 (IMP+124)
       1 negative eigenvalues detected
 Iteration:  59     *|du|/|u| =  1.3110812E-01     *Ei/E0 =  2.4132265E-04

 ITERATION LIMIT reached, automatically REFORMING stiffness matrix...
 
 *** Warning 60124 (IMP+124)
       1 negative eigenvalues detected
 Iteration:  60     *|du|/|u| =  7.2984793E-01     *Ei/E0 =  1.2989605E-03

 ITERATION LIMIT reached, automatically REFORMING stiffness matrix...
 Iteration:  61     *|du|/|u| =  5.4824460E-01     *Ei/E0 =  9.2121553E-04

 ITERATION LIMIT reached, automatically REFORMING stiffness matrix...
 Iteration:  62     *|du|/|u| =  4.0219275E-02     *Ei/E0 =  6.7359527E-05

 ITERATION LIMIT reached, automatically REFORMING stiffness matrix...
 Iteration:  63     *|du|/|u| =  3.4186942E-03     *Ei/E0 =  2.8860644E-06

 ITERATION LIMIT reached, automatically REFORMING stiffness matrix...
 Iteration:  64     *|du|/|u| =  3.1826024E-03     *Ei/E0 =  3.2576526E-06

 ITERATION LIMIT reached, automatically REFORMING stiffness matrix...
 Iteration:  65     *|du|/|u| =  3.4878672E-01     *Ei/E0 =  1.5995533E-04

 ITERATION LIMIT reached, automatically REFORMING stiffness matrix...
 Iteration:  66     *|du|/|u| =  6.9024839E-03     *Ei/E0 =  4.0886114E-06

 ITERATION LIMIT reached, automatically REFORMING stiffness matrix...
 Iteration:  67     *|du|/|u| =  1.0605663E-02     *Ei/E0 =  3.5017736E-06

 ITERATION LIMIT reached, automatically REFORMING stiffness matrix...
 Iteration:  68     *|du|/|u| =  3.7049830E-02     *Ei/E0 =  4.9741156E-06

 ITERATION LIMIT reached, automatically REFORMING stiffness matrix...
 Iteration:  69     *|du|/|u| =  2.4702472E-02     *Ei/E0 =  2.9283051E-06

 ITERATION LIMIT reached, automatically REFORMING stiffness matrix...
 Iteration:  70     *|du|/|u| =  1.5097330E-02     *Ei/E0 =  1.7584100E-06

 ITERATION LIMIT reached, automatically REFORMING stiffness matrix...
 Iteration:  71     *|du|/|u| =  2.2633178E-02     *Ei/E0 =  2.3971083E-06

 ITERATION LIMIT reached, automatically REFORMING stiffness matrix...
 Iteration:  72     *|du|/|u| =  1.5723780E-02     *Ei/E0 =  1.7430036E-06

 ITERATION LIMIT reached, automatically REFORMING stiffness matrix...
 Iteration:  73     *|du|/|u| =  2.5906691E-02     *Ei/E0 =  2.5572815E-06

 ITERATION LIMIT reached, automatically REFORMING stiffness matrix...
 Iteration:  74     *|du|/|u| =  1.6045225E-02     *Ei/E0 =  1.6073542E-06

 ITERATION LIMIT reached, automatically REFORMING stiffness matrix...
 Iteration:  75     *|du|/|u| =  2.3977819E-02     *Ei/E0 =  2.1763847E-06

 ITERATION LIMIT reached, automatically REFORMING stiffness matrix...
 Iteration:  76     *|du|/|u| =  1.6618306E-02     *Ei/E0 =  1.5094415E-06

 ITERATION LIMIT reached, automatically REFORMING stiffness matrix...
 Iteration:  77     *|du|/|u| =  2.2109406E-02     *Ei/E0 =  1.8499794E-06

 ITERATION LIMIT reached, automatically REFORMING stiffness matrix...
 Iteration:  78     *|du|/|u| =  1.7474483E-02     *Ei/E0 =  1.4461829E-06

 ITERATION LIMIT reached, automatically REFORMING stiffness matrix...
 Iteration:  79     *|du|/|u| =  2.0267919E-02     *Ei/E0 =  1.5709171E-06

 ITERATION LIMIT reached, automatically REFORMING stiffness matrix...
 Iteration:  80     *|du|/|u| =  1.8662428E-02     *Ei/E0 =  1.4169218E-06

 ITERATION LIMIT reached, automatically REFORMING stiffness matrix...
 Iteration:  81     *|du|/|u| =  1.8013593E-02     *Ei/E0 =  1.3933148E-06

 ITERATION LIMIT reached, automatically REFORMING stiffness matrix...
 Iteration:  82     *|du|/|u| =  2.4311999E-02     *Ei/E0 =  1.9699220E-06

 ITERATION LIMIT reached, automatically REFORMING stiffness matrix...
 Iteration:  83     *|du|/|u| =  2.0786618E-02     *Ei/E0 =  1.5672529E-06

 ITERATION LIMIT reached, automatically REFORMING stiffness matrix...
 Iteration:  84     *|du|/|u| =  2.5634481E-02     *Ei/E0 =  1.9828804E-06

 ITERATION LIMIT reached, automatically REFORMING stiffness matrix...
 Iteration:  85     *|du|/|u| =  1.7906191E-02     *Ei/E0 =  1.3146187E-06

 ITERATION LIMIT reached, automatically REFORMING stiffness matrix...
 Iteration:  86     *|du|/|u| =  2.7639383E-02     *Ei/E0 =  2.0573023E-06

 ITERATION LIMIT reached, automatically REFORMING stiffness matrix...
 Iteration:  87     *|du|/|u| =  1.5282683E-02     *Ei/E0 =  1.1036341E-06

 ITERATION LIMIT reached, automatically REFORMING stiffness matrix...
 Iteration:  88     *|du|/|u| =  3.0558990E-02     *Ei/E0 =  2.2132487E-06

 ITERATION LIMIT reached, automatically REFORMING stiffness matrix...
 
 *** Warning 60124 (IMP+124)
       1 negative eigenvalues detected
 Iteration:  89     *|du|/|u| =  2.8271831E-01     *Ei/E0 =  1.8162607E-05

 ITERATION LIMIT reached, automatically REFORMING stiffness matrix...
 Iteration:  90     *|du|/|u| =  3.0555166E-02     *Ei/E0 =  2.1421841E-06

 ITERATION LIMIT reached, automatically REFORMING stiffness matrix...
 Iteration:  91     *|du|/|u| =  1.3610253E-02     *Ei/E0 =  9.9944285E-07

 ITERATION LIMIT reached, automatically REFORMING stiffness matrix...
 Iteration:  92     *|du|/|u| =  2.8703796E-02     *Ei/E0 =  1.8852259E-06

 ITERATION LIMIT reached, automatically REFORMING stiffness matrix...
 Iteration:  93     *|du|/|u| =  1.3644724E-02     *Ei/E0 =  9.2650596E-07

 ITERATION LIMIT reached, automatically REFORMING stiffness matrix...
 Iteration:  94     *|du|/|u| =  2.7107093E-02     *Ei/E0 =  1.6690540E-06

 ITERATION LIMIT reached, automatically REFORMING stiffness matrix...
 
 *** Warning 60124 (IMP+124)
       1 negative eigenvalues detected
 Iteration:  95     *|du|/|u| =  1.0091919E-01     *Ei/E0 =  1.2346350E-06

 ITERATION LIMIT reached, automatically REFORMING stiffness matrix...
 Iteration:  96     *|du|/|u| =  1.0991948E-02     *Ei/E0 =  7.6450505E-07

 ITERATION LIMIT reached, automatically REFORMING stiffness matrix...
 
 *** Warning 60124 (IMP+124)
       1 negative eigenvalues detected
 Iteration:  97     *|du|/|u| =  1.6624141E-01     *Ei/E0 =  1.3550230E-05

 ITERATION LIMIT reached, automatically REFORMING stiffness matrix...
 Iteration:  98     *|du|/|u| =  6.2162315E-02     *Ei/E0 =  5.6465236E-06

 ITERATION LIMIT reached, automatically REFORMING stiffness matrix...
 Iteration:  99     *|du|/|u| =  5.1122827E-03     *Ei/E0 =  6.0025369E-07

 ITERATION LIMIT reached, automatically REFORMING stiffness matrix...
 Iteration: 100     *|du|/|u| =  7.1177726E-02     *Ei/E0 =  6.3293245E-06

 ITERATION LIMIT reached, automatically REFORMING stiffness matrix...
 
 *** Warning 60124 (IMP+124)
       1 negative eigenvalues detected
 Iteration: 101     *|du|/|u| =  7.1287820E-02     *Ei/E0 =  1.4249005E-06

 ITERATION LIMIT reached, automatically REFORMING stiffness matrix...
 Iteration: 102     *|du|/|u| =  4.2496637E-03     *Ei/E0 =  4.5818085E-07

 ITERATION LIMIT reached, automatically REFORMING stiffness matrix...
 
 *** Warning 60124 (IMP+124)
       1 negative eigenvalues detected
     Message 60124 (IMP+124) exceeds 50 times
     Further printing will be suppressed from screen only
 Iteration: 103     *|du|/|u| =  4.0664863E-02     *Ei/E0 =  1.3256198E-06

 ITERATION LIMIT reached, automatically REFORMING stiffness matrix...
 
 *** Warning 60124 (IMP+124)
       1 negative eigenvalues detected
 Iteration: 104     *|du|/|u| =  8.3938704E-02     *Ei/E0 =  4.6387681E-06

 ITERATION LIMIT reached, automatically REFORMING stiffness matrix...
 
 *** Warning 60124 (IMP+124)
       1 negative eigenvalues detected
 Iteration: 105     *|du|/|u| =  9.9461316E-02     *Ei/E0 =  8.1044692E-06

 ITERATION LIMIT reached, automatically REFORMING stiffness matrix...
 
 *** Warning 60124 (IMP+124)
       1 negative eigenvalues detected
 Iteration: 106     *|du|/|u| =  1.2031641E-01     *Ei/E0 =  1.5042542E-05

 ITERATION LIMIT reached, automatically REFORMING stiffness matrix...
 
 *** Warning 60124 (IMP+124)
       1 negative eigenvalues detected
 Iteration: 107     *|du|/|u| =  1.3425609E-01     *Ei/E0 =  2.3603530E-05

 ITERATION LIMIT reached, automatically REFORMING stiffness matrix...
 
 *** Warning 60124 (IMP+124)
       1 negative eigenvalues detected
 Iteration: 108     *|du|/|u| =  1.3884003E-01     *Ei/E0 =  3.3181215E-05

 ITERATION LIMIT reached, automatically REFORMING stiffness matrix...
 
 *** Warning 60124 (IMP+124)
       1 negative eigenvalues detected
 Iteration: 109     *|du|/|u| =  1.3196602E-01     *Ei/E0 =  4.4595750E-05

 ITERATION LIMIT reached, automatically REFORMING stiffness matrix...
 
 *** Warning 60124 (IMP+124)
       1 negative eigenvalues detected
 Iteration: 110     *|du|/|u| =  1.1397735E-01     *Ei/E0 =  5.5053472E-05

 ITERATION LIMIT reached, automatically REFORMING stiffness matrix...
 
 *** Warning 60124 (IMP+124)
       1 negative eigenvalues detected
 Iteration: 111     *|du|/|u| =  9.8619630E-02     *Ei/E0 =  6.0387305E-05

 ITERATION LIMIT reached, automatically REFORMING stiffness matrix...
 
 *** Warning 60124 (IMP+124)
       1 negative eigenvalues detected
 Iteration: 112     *|du|/|u| =  8.7970352E-02     *Ei/E0 =  6.3749116E-05

 ITERATION LIMIT reached, automatically REFORMING stiffness matrix...
 
 *** Warning 60124 (IMP+124)
       1 negative eigenvalues detected
 Iteration: 113     *|du|/|u| =  1.2183331E-01     *Ei/E0 =  8.8791200E-05

 ITERATION LIMIT reached, automatically REFORMING stiffness matrix...
 
 *** Warning 60124 (IMP+124)
       1 negative eigenvalues detected
 Iteration: 114     *|du|/|u| =  1.0988708E-01     *Ei/E0 =  9.0539503E-05

 ITERATION LIMIT reached, automatically REFORMING stiffness matrix...
 
 *** Warning 60124 (IMP+124)
       1 negative eigenvalues detected
 Iteration: 115     *|du|/|u| =  1.9338481E-01     *Ei/E0 =  1.9343110E-04

 ITERATION LIMIT reached, automatically REFORMING stiffness matrix...
 
 *** Warning 60124 (IMP+124)
       1 negative eigenvalues detected
 Iteration: 116     *|du|/|u| =  2.0377342E-01     *Ei/E0 =  2.5061313E-04

 ITERATION LIMIT reached, automatically REFORMING stiffness matrix...
 
 *** Warning 60124 (IMP+124)
       1 negative eigenvalues detected
 Iteration: 117     *|du|/|u| =  2.5664229E-01     *Ei/E0 =  1.9528174E-04

 ITERATION LIMIT reached, automatically REFORMING stiffness matrix...
 
 *** Warning 60124 (IMP+124)
       1 negative eigenvalues detected
 Iteration: 118     *|du|/|u| =  2.7351947E-01     *Ei/E0 =  2.1158086E-04

 ITERATION LIMIT reached, automatically REFORMING stiffness matrix...
 
 *** Warning 60124 (IMP+124)
       1 negative eigenvalues detected
 Iteration: 119     *|du|/|u| =  4.6476916E-01     *Ei/E0 =  2.0455805E-04

 ITERATION LIMIT reached, automatically REFORMING stiffness matrix...
 
 *** Warning 60124 (IMP+124)
       1 negative eigenvalues detected
 Iteration: 120     *|du|/|u| =  3.5303768E-01     *Ei/E0 =  2.2210717E-04

 ITERATION LIMIT reached, automatically REFORMING stiffness matrix...
 
 *** Warning 60124 (IMP+124)
       1 negative eigenvalues detected
 Iteration: 121     *|du|/|u| =  3.2594753E-01     *Ei/E0 =  1.5668171E-04

 ITERATION LIMIT reached, automatically REFORMING stiffness matrix...
 
 *** Warning 60124 (IMP+124)
       2 negative eigenvalues detected
 Iteration: 122     *|du|/|u| =  1.9984274E-01     *Ei/E0 =  2.3135135E-04

 ITERATION LIMIT reached, automatically REFORMING stiffness matrix...
 
 *** Warning 60124 (IMP+124)
       1 negative eigenvalues detected
 Iteration: 123     *|du|/|u| =  1.8076983E-01     *Ei/E0 =  1.6192941E-04

 ITERATION LIMIT reached, automatically REFORMING stiffness matrix...
 
 *** Warning 60124 (IMP+124)
       1 negative eigenvalues detected
 Iteration: 124     *|du|/|u| =  1.6696146E-01     *Ei/E0 =  1.8431806E-04

 ITERATION LIMIT reached, automatically REFORMING stiffness matrix...
 
 *** Warning 60124 (IMP+124)
       1 negative eigenvalues detected
 Iteration: 125     *|du|/|u| =  1.5188613E-01     *Ei/E0 =  1.8680532E-04

 ITERATION LIMIT reached, automatically REFORMING stiffness matrix...
 
 *** Warning 60124 (IMP+124)
       1 negative eigenvalues detected
 Iteration: 126     *|du|/|u| =  1.5103598E-01     *Ei/E0 =  1.8768928E-04

 ITERATION LIMIT reached, automatically REFORMING stiffness matrix...
 
 *** Warning 60124 (IMP+124)
       1 negative eigenvalues detected
 Iteration: 127     *|du|/|u| =  1.5261777E-01     *Ei/E0 =  1.9199335E-04

 ITERATION LIMIT reached, automatically REFORMING stiffness matrix...
 Iteration: 128     *|du|/|u| =  2.3267688E-01     *Ei/E0 =  5.4522709E-04

 ITERATION LIMIT reached, automatically REFORMING stiffness matrix...
 Iteration: 129     *|du|/|u| =  2.6017524E-02     *Ei/E0 =  2.0392253E-05

 ITERATION LIMIT reached, automatically REFORMING stiffness matrix...
 Iteration: 130     *|du|/|u| =  8.5938146E-03     *Ei/E0 =  5.5934462E-06

 ITERATION LIMIT reached, automatically REFORMING stiffness matrix...
 Iteration: 131     *|du|/|u| =  1.0815329E-02     *Ei/E0 =  4.5512893E-06

 ITERATION LIMIT reached, automatically REFORMING stiffness matrix...
 Iteration: 132     *|du|/|u| =  6.1618110E-03     *Ei/E0 =  3.9678403E-06

 ITERATION LIMIT reached, automatically REFORMING stiffness matrix...
 Iteration: 133     *|du|/|u| =  3.5351525E-02     *Ei/E0 =  1.0832719E-05

 ITERATION LIMIT reached, automatically REFORMING stiffness matrix...
 Iteration: 134     *|du|/|u| =  1.2563680E-02     *Ei/E0 =  3.7627469E-06

 ITERATION LIMIT reached, automatically REFORMING stiffness matrix...
 Iteration: 135     *|du|/|u| =  4.2275476E-02     *Ei/E0 =  8.6592790E-06

 ITERATION LIMIT reached, automatically REFORMING stiffness matrix...
 Iteration: 136     *|du|/|u| =  7.0211880E-03     *Ei/E0 =  2.1515169E-06

 ITERATION LIMIT reached, automatically REFORMING stiffness matrix...
 Iteration: 137     *|du|/|u| =  2.9710047E-01     *Ei/E0 =  6.9663278E-05

 ITERATION LIMIT reached, automatically REFORMING stiffness matrix...
 Iteration: 138     *|du|/|u| =  1.0237638E-02     *Ei/E0 =  3.1131887E-06

 ITERATION LIMIT reached, automatically REFORMING stiffness matrix...
 Iteration: 139     *|du|/|u| =  2.3583376E-01     *Ei/E0 =  3.6829059E-05

 ITERATION LIMIT reached, automatically REFORMING stiffness matrix...
 Iteration: 140     *|du|/|u| =  1.2264618E-02     *Ei/E0 =  2.3705822E-06

 ITERATION LIMIT reached, automatically REFORMING stiffness matrix...
 
 *** Warning 60124 (IMP+124)
       1 negative eigenvalues detected
 Iteration: 141     *|du|/|u| =  2.1228027E-01     *Ei/E0 =  1.1226988E-05

 ITERATION LIMIT reached, automatically REFORMING stiffness matrix...
 
 *** Warning 60124 (IMP+124)
       1 negative eigenvalues detected
 Iteration: 142     *|du|/|u| =  2.1433732E-01     *Ei/E0 =  1.6943164E-05

 ITERATION LIMIT reached, automatically REFORMING stiffness matrix...
 
 *** Warning 60124 (IMP+124)
       1 negative eigenvalues detected
 Iteration: 143     *|du|/|u| =  2.0632247E-01     *Ei/E0 =  2.1746875E-05

 ITERATION LIMIT reached, automatically REFORMING stiffness matrix...
 
 *** Warning 60124 (IMP+124)
       1 negative eigenvalues detected
 Iteration: 144     *|du|/|u| =  1.9098390E-01     *Ei/E0 =  2.7430381E-05

 ITERATION LIMIT reached, automatically REFORMING stiffness matrix...
 
 *** Warning 60124 (IMP+124)
       1 negative eigenvalues detected
 Iteration: 145     *|du|/|u| =  1.7024017E-01     *Ei/E0 =  3.3579355E-05

 ITERATION LIMIT reached, automatically REFORMING stiffness matrix...
 
 *** Warning 60124 (IMP+124)
       1 negative eigenvalues detected
 Iteration: 146     *|du|/|u| =  1.4743620E-01     *Ei/E0 =  3.9834689E-05

 ITERATION LIMIT reached, automatically REFORMING stiffness matrix...
 
 *** Warning 60124 (IMP+124)
       1 negative eigenvalues detected
 Iteration: 147     *|du|/|u| =  1.2546261E-01     *Ei/E0 =  4.6097389E-05

 ITERATION LIMIT reached, automatically REFORMING stiffness matrix...
 
 *** Warning 60124 (IMP+124)
       1 negative eigenvalues detected
 Iteration: 148     *|du|/|u| =  1.0161451E-01     *Ei/E0 =  5.4845911E-05

 ITERATION LIMIT reached, automatically REFORMING stiffness matrix...
 
 *** Warning 60124 (IMP+124)
       1 negative eigenvalues detected
 Iteration: 149     *|du|/|u| =  8.3153100E-02     *Ei/E0 =  6.3489657E-05

 ITERATION LIMIT reached, automatically REFORMING stiffness matrix...
 
 *** Warning 60124 (IMP+124)
       1 negative eigenvalues detected
 Iteration: 150     *|du|/|u| =  7.5174628E-02     *Ei/E0 =  6.7334335E-05

 ITERATION LIMIT reached, automatically REFORMING stiffness matrix...
 
 *** Warning 60124 (IMP+124)
       1 negative eigenvalues detected
 Iteration: 151     *|du|/|u| =  8.4233832E-02     *Ei/E0 =  8.6315542E-05

 ITERATION LIMIT reached, automatically REFORMING stiffness matrix...
 
 *** Warning 60124 (IMP+124)
       1 negative eigenvalues detected
 Iteration: 152     *|du|/|u| =  7.7377429E-02     *Ei/E0 =  8.9980973E-05

 ITERATION LIMIT reached, automatically REFORMING stiffness matrix...
 
 *** Warning 60124 (IMP+124)
       1 negative eigenvalues detected
 Iteration: 153     *|du|/|u| =  1.3873393E-01     *Ei/E0 =  1.5715028E-04

 ITERATION LIMIT reached, automatically REFORMING stiffness matrix...
 
 *** Warning 60124 (IMP+124)
       1 negative eigenvalues detected
 Iteration: 154     *|du|/|u| =  1.3232601E-01     *Ei/E0 =  1.7255145E-04

 ITERATION LIMIT reached, automatically REFORMING stiffness matrix...
 
 *** Warning 60124 (IMP+124)
       1 negative eigenvalues detected
 Iteration: 155     *|du|/|u| =  1.3462904E-01     *Ei/E0 =  1.9933848E-04

 ITERATION LIMIT reached, automatically REFORMING stiffness matrix...
 
 *** Warning 60124 (IMP+124)
       1 negative eigenvalues detected
 Iteration: 156     *|du|/|u| =  2.2846479E-01     *Ei/E0 =  4.0318135E-04

 ITERATION LIMIT reached, automatically REFORMING stiffness matrix...
 Iteration: 157     *|du|/|u| =  2.6253850E-01     *Ei/E0 =  5.9562918E-04

 ITERATION LIMIT reached, automatically REFORMING stiffness matrix...
 Iteration: 158     *|du|/|u| =  1.2808185E-01     *Ei/E0 =  8.2368296E-05

 ITERATION LIMIT reached, automatically REFORMING stiffness matrix...
 Iteration: 159     *|du|/|u| =  1.3014785E-02     *Ei/E0 =  7.9811162E-06

 ITERATION LIMIT reached, automatically REFORMING stiffness matrix...
 Iteration: 160     *|du|/|u| =  3.8811038E-02     *Ei/E0 =  1.3137176E-05

 ITERATION LIMIT reached, automatically REFORMING stiffness matrix...
 Iteration: 161     *|du|/|u| =  5.7846528E-03     *Ei/E0 =  2.0843311E-06

 ITERATION LIMIT reached, automatically REFORMING stiffness matrix...
 Iteration: 162     *|du|/|u| =  2.0378677E-02     *Ei/E0 =  4.7934128E-06

 ITERATION LIMIT reached, automatically REFORMING stiffness matrix...
 Iteration: 163     *|du|/|u| =  7.3840839E-03     *Ei/E0 =  2.2197303E-06

 ITERATION LIMIT reached, automatically REFORMING stiffness matrix...
 Iteration: 164     *|du|/|u| =  1.9253193E-02     *Ei/E0 =  4.6024655E-06

 ITERATION LIMIT reached, automatically REFORMING stiffness matrix...
 Iteration: 165     *|du|/|u| =  7.2093013E-03     *Ei/E0 =  2.5919569E-06

 ITERATION LIMIT reached, automatically REFORMING stiffness matrix...
 Iteration: 166     *|du|/|u| =  3.5485514E-02     *Ei/E0 =  1.0937036E-05
 REFORMATION LIMIT reached, nonlinear equilibrium search aborted...
 convergence failure, repeat step: dtnew =  1.39248E+00

 BEGIN implicit statics  step     23 t= 6.3489E+01             08/13/20 09:06:29
 ============================================================
                time =  6.34893E+01
   current step size =  1.39248E+00
 Iteration:   1     *|du|/|u| =  2.0983041E-02     *Ei/E0 =  2.1499734E-01

 ITERATION LIMIT reached, automatically REFORMING stiffness matrix...
 
 *** Warning 60124 (IMP+124)
       3 negative eigenvalues detected
 Iteration:   2     *|du|/|u| =  1.3009310E-02     *Ei/E0 =  1.6529238E-04

 ITERATION LIMIT reached, automatically REFORMING stiffness matrix...
 
 *** Warning 60124 (IMP+124)
       1 negative eigenvalues detected
 Iteration:   3     *|du|/|u| =  7.9386687E-03     *Ei/E0 =  5.7594950E-05

 ITERATION LIMIT reached, automatically REFORMING stiffness matrix...
 
 *** Warning 60124 (IMP+124)
       1 negative eigenvalues detected
 Iteration:   4     *|du|/|u| =  1.2543166E-03     *Ei/E0 =  3.3512588E-05

 Equilibrium iterations summary step     23 t= 6.3489E+01      08/13/20 09:06:32
    Number of iterations to converge         =           4
    Number of stiffness reformations         =           3
    Number of right hand side evaluations    =          18

 Convergence detected as a combination of
     1. Current  maximum   displacement translational norm           
        Value =   6.9230E-03 vs Tolerance =   7.9862E-03
    2559 t 6.3489E+01 dt 1.39E+00 write d3plot file            08/13/20 09:06:32

 BEGIN implicit statics  step     24 t= 6.5696E+01             08/13/20 09:06:32
 ============================================================
                time =  6.56962E+01
   current step size =  2.20693E+00
 Iteration:   1     *|du|/|u| =  3.3364395E-02     *Ei/E0 =  5.4082408E-01

 ITERATION LIMIT reached, automatically REFORMING stiffness matrix...
 
 *** Warning 60124 (IMP+124)
       1 negative eigenvalues detected
 Iteration:   2     *|du|/|u| =  7.5200734E-02     *Ei/E0 =  1.4530891E-05

 ITERATION LIMIT reached, automatically REFORMING stiffness matrix...
 
 *** Warning 60124 (IMP+124)
       1 negative eigenvalues detected
 Iteration:   3     *|du|/|u| =  8.7728600E-02     *Ei/E0 =  2.5810537E-05

 ITERATION LIMIT reached, automatically REFORMING stiffness matrix...
 
 *** Warning 60124 (IMP+124)
       1 negative eigenvalues detected
 Iteration:   4     *|du|/|u| =  1.0362649E-01     *Ei/E0 =  4.2074478E-05

 ITERATION LIMIT reached, automatically REFORMING stiffness matrix...
 
 *** Warning 60124 (IMP+124)
       1 negative eigenvalues detected
 Iteration:   5     *|du|/|u| =  1.1265096E-01     *Ei/E0 =  5.5604609E-05

 ITERATION LIMIT reached, automatically REFORMING stiffness matrix...
 
 *** Warning 60124 (IMP+124)
       1 negative eigenvalues detected
 Iteration:   6     *|du|/|u| =  3.3201634E-01     *Ei/E0 =  2.1498216E-04

 ITERATION LIMIT reached, automatically REFORMING stiffness matrix...
 Iteration:   7     *|du|/|u| =  1.4239864E-01     *Ei/E0 =  1.1911248E-04

 ITERATION LIMIT reached, automatically REFORMING stiffness matrix...
 Iteration:   8     *|du|/|u| =  4.2428856E-03     *Ei/E0 =  6.1689768E-06

 ITERATION LIMIT reached, automatically REFORMING stiffness matrix...
 Iteration:   9     *|du|/|u| =  1.9631772E-02     *Ei/E0 =  1.0433171E-05

 ITERATION LIMIT reached, automatically REFORMING stiffness matrix...
 Iteration:  10     *|du|/|u| =  1.1312014E-01     *Ei/E0 =  2.1441889E-05

 ITERATION LIMIT reached, automatically REFORMING stiffness matrix...
 Iteration:  11     *|du|/|u| =  6.8959979E-02     *Ei/E0 =  5.3225502E-06

 ITERATION LIMIT reached, automatically REFORMING stiffness matrix...
 Iteration:  12     *|du|/|u| =  2.2871958E-02     *Ei/E0 =  3.8182426E-06

 ITERATION LIMIT reached, automatically REFORMING stiffness matrix...
 Iteration:  13     *|du|/|u| =  3.0002494E-01     *Ei/E0 =  3.5356455E-05

 ITERATION LIMIT reached, automatically REFORMING stiffness matrix...
 Iteration:  14     *|du|/|u| =  1.0259885E-02     *Ei/E0 =  3.0652073E-06

 ITERATION LIMIT reached, automatically REFORMING stiffness matrix...
 Iteration:  15     *|du|/|u| =  4.5689627E-03     *Ei/E0 =  3.2093153E-06

 ITERATION LIMIT reached, automatically REFORMING stiffness matrix...
 Iteration:  16     *|du|/|u| =  1.5640814E-02     *Ei/E0 =  3.8157114E-06

 ITERATION LIMIT reached, automatically REFORMING stiffness matrix...
 Iteration:  17     *|du|/|u| =  1.5450163E-02     *Ei/E0 =  5.1138540E-06

 ITERATION LIMIT reached, automatically REFORMING stiffness matrix...
 Iteration:  18     *|du|/|u| =  7.7437531E-03     *Ei/E0 =  3.7002435E-06

 ITERATION LIMIT reached, automatically REFORMING stiffness matrix...
 Iteration:  19     *|du|/|u| =  1.6560966E-02     *Ei/E0 =  3.9071403E-06

 ITERATION LIMIT reached, automatically REFORMING stiffness matrix...
 Iteration:  20     *|du|/|u| =  7.2929743E-02     *Ei/E0 =  1.4725182E-05

 ITERATION LIMIT reached, automatically REFORMING stiffness matrix...
 Iteration:  21     *|du|/|u| =  4.0320025E-02     *Ei/E0 =  3.7740882E-06

 ITERATION LIMIT reached, automatically REFORMING stiffness matrix...
 Iteration:  22     *|du|/|u| =  2.0358994E-02     *Ei/E0 =  3.7905976E-06

 ITERATION LIMIT reached, automatically REFORMING stiffness matrix...
 Iteration:  23     *|du|/|u| =  7.0070714E-02     *Ei/E0 =  1.1429236E-05

 ITERATION LIMIT reached, automatically REFORMING stiffness matrix...
 Iteration:  24     *|du|/|u| =  1.0267081E-02     *Ei/E0 =  2.6767223E-06

 ITERATION LIMIT reached, automatically REFORMING stiffness matrix...
 Iteration:  25     *|du|/|u| =  3.2608593E-01     *Ei/E0 =  6.9953577E-05

 ITERATION LIMIT reached, automatically REFORMING stiffness matrix...
 Iteration:  26     *|du|/|u| =  2.8802242E-03     *Ei/E0 =  1.9001098E-06

 ITERATION LIMIT reached, automatically REFORMING stiffness matrix...
 
 *** Warning 60124 (IMP+124)
       1 negative eigenvalues detected
 Iteration:  27     *|du|/|u| =  6.0491363E-02     *Ei/E0 =  1.6362953E-05

 ITERATION LIMIT reached, automatically REFORMING stiffness matrix...
 
 *** Warning 60124 (IMP+124)
       1 negative eigenvalues detected
 Iteration:  28     *|du|/|u| =  7.0334194E-02     *Ei/E0 =  2.5807263E-05

 ITERATION LIMIT reached, automatically REFORMING stiffness matrix...
 
 *** Warning 60124 (IMP+124)
       1 negative eigenvalues detected
 Iteration:  29     *|du|/|u| =  8.2513630E-02     *Ei/E0 =  4.4106747E-05

 ITERATION LIMIT reached, automatically REFORMING stiffness matrix...
 
 *** Warning 60124 (IMP+124)
       1 negative eigenvalues detected
 Iteration:  30     *|du|/|u| =  7.6363755E-02     *Ei/E0 =  5.2922336E-05

 ITERATION LIMIT reached, automatically REFORMING stiffness matrix...
 
 *** Warning 60124 (IMP+124)
       1 negative eigenvalues detected
 Iteration:  31     *|du|/|u| =  7.6683924E-02     *Ei/E0 =  7.0725311E-05

 ITERATION LIMIT reached, automatically REFORMING stiffness matrix...
 
 *** Warning 60124 (IMP+124)
       1 negative eigenvalues detected
 Iteration:  32     *|du|/|u| =  7.5596319E-02     *Ei/E0 =  8.2339043E-05

 ITERATION LIMIT reached, automatically REFORMING stiffness matrix...
 
 *** Warning 60124 (IMP+124)
       1 negative eigenvalues detected
 Iteration:  33     *|du|/|u| =  3.7310433E-01     *Ei/E0 =  4.0990321E-04

 ITERATION LIMIT reached, automatically REFORMING stiffness matrix...
 
 *** Warning 60124 (IMP+124)
       1 negative eigenvalues detected
 Iteration:  34     *|du|/|u| =  2.3027704E-01     *Ei/E0 =  2.6933118E-04

 ITERATION LIMIT reached, automatically REFORMING stiffness matrix...
 
 *** Warning 60124 (IMP+124)
       1 negative eigenvalues detected
 Iteration:  35     *|du|/|u| =  7.4821631E-01     *Ei/E0 =  8.8664514E-04

 ITERATION LIMIT reached, automatically REFORMING stiffness matrix...
 
 *** Warning 60124 (IMP+124)
       1 negative eigenvalues detected
 Iteration:  36     *|du|/|u| =  3.0254029E+00     *Ei/E0 =  3.2729453E-03

 ITERATION LIMIT reached, automatically REFORMING stiffness matrix...
 Iteration:  37     *|du|/|u| =  4.9856806E-03     *Ei/E0 =  3.3375122E-05

 ITERATION LIMIT reached, automatically REFORMING stiffness matrix...
 
 *** Warning 60124 (IMP+124)
       1 negative eigenvalues detected
 Iteration:  38     *|du|/|u| =  3.0016038E-02     *Ei/E0 =  4.0726819E-07

 ITERATION LIMIT reached, automatically REFORMING stiffness matrix...
 
 *** Warning 60124 (IMP+124)
       1 negative eigenvalues detected
 Iteration:  39     *|du|/|u| =  3.0378119E-02     *Ei/E0 =  7.3692462E-07

 ITERATION LIMIT reached, automatically REFORMING stiffness matrix...
 
 *** Warning 60124 (IMP+124)
       1 negative eigenvalues detected
 Iteration:  40     *|du|/|u| =  3.1202714E-02     *Ei/E0 =  1.5016156E-06

 ITERATION LIMIT reached, automatically REFORMING stiffness matrix...
 
 *** Warning 60124 (IMP+124)
       1 negative eigenvalues detected
 Iteration:  41     *|du|/|u| =  3.2471933E-02     *Ei/E0 =  2.7169228E-06

 ITERATION LIMIT reached, automatically REFORMING stiffness matrix...
 
 *** Warning 60124 (IMP+124)
       1 negative eigenvalues detected
 Iteration:  42     *|du|/|u| =  4.8205827E-02     *Ei/E0 =  1.2223219E-05

 ITERATION LIMIT reached, automatically REFORMING stiffness matrix...
 
 *** Warning 60124 (IMP+124)
       1 negative eigenvalues detected
 Iteration:  43     *|du|/|u| =  6.4002679E-02     *Ei/E0 =  2.7615417E-05

 ITERATION LIMIT reached, automatically REFORMING stiffness matrix...
 
 *** Warning 60124 (IMP+124)
       1 negative eigenvalues detected
 Iteration:  44     *|du|/|u| =  1.9987297E+00     *Ei/E0 =  1.5633109E-03

 ITERATION LIMIT reached, automatically REFORMING stiffness matrix...
 Iteration:  45     *|du|/|u| =  4.3785313E-03     *Ei/E0 =  1.1016342E-04

 ITERATION LIMIT reached, automatically REFORMING stiffness matrix...
 Iteration:  46     *|du|/|u| =  1.6928987E-02     *Ei/E0 =  3.1211733E-05

 ITERATION LIMIT reached, automatically REFORMING stiffness matrix...
 Iteration:  47     *|du|/|u| =  4.8117816E-03     *Ei/E0 =  1.4469175E-05

 ITERATION LIMIT reached, automatically REFORMING stiffness matrix...
 Iteration:  48     *|du|/|u| =  9.2226351E-03     *Ei/E0 =  1.3656756E-05

 ITERATION LIMIT reached, automatically REFORMING stiffness matrix...
 Iteration:  49     *|du|/|u| =  9.4414833E-03     *Ei/E0 =  7.0763681E-06

 ITERATION LIMIT reached, automatically REFORMING stiffness matrix...
 Iteration:  50     *|du|/|u| =  8.6215458E-03     *Ei/E0 =  5.7575632E-06

 ITERATION LIMIT reached, automatically REFORMING stiffness matrix...
 Iteration:  51     *|du|/|u| =  1.2145052E-02     *Ei/E0 =  6.0583260E-06

 ITERATION LIMIT reached, automatically REFORMING stiffness matrix...
 Iteration:  52     *|du|/|u| =  7.2221299E-03     *Ei/E0 =  6.0981413E-06

 ITERATION LIMIT reached, automatically REFORMING stiffness matrix...
 Iteration:  53     *|du|/|u| =  3.1642060E-02     *Ei/E0 =  1.4870954E-05

 ITERATION LIMIT reached, automatically REFORMING stiffness matrix...
 Iteration:  54     *|du|/|u| =  4.4036850E-03     *Ei/E0 =  1.7972685E-06

 ITERATION LIMIT reached, automatically REFORMING stiffness matrix...
 Iteration:  55     *|du|/|u| =  1.5629595E-02     *Ei/E0 =  4.3833394E-06

 ITERATION LIMIT reached, automatically REFORMING stiffness matrix...
 Iteration:  56     *|du|/|u| =  3.4238590E-03     *Ei/E0 =  1.0156468E-06

 ITERATION LIMIT reached, automatically REFORMING stiffness matrix...
 Iteration:  57     *|du|/|u| =  2.0937262E-02     *Ei/E0 =  4.8904045E-06

 ITERATION LIMIT reached, automatically REFORMING stiffness matrix...
 Iteration:  58     *|du|/|u| =  1.6503693E-03     *Ei/E0 =  5.4232979E-07

[...]
 Iteration:   2     *|du|/|u| =  5.1506540E-04     *Ei/E0 =  5.1159293E-06

 Equilibrium iterations summary step    104 t= 1.2892E+02      08/13/20 09:34:00
    Number of iterations to converge         =           2
    Number of stiffness reformations         =           1
    Number of right hand side evaluations    =           4

 Convergence detected as a combination of
     1. Ratio of euclidian displacement translational norms          
        Value =   5.1507E-04 vs Tolerance =   1.0000E-03
     2. Ratio of euclidian energy       translational norms          
        Value =   5.1159E-06 vs Tolerance =   1.0000E-04
   24474 t 1.2892E+02 dt 3.00E+00 write d3plot file            08/13/20 09:34:00

 BEGIN implicit statics  step    105 t= 1.3192E+02             08/13/20 09:34:00
 ============================================================
                time =  1.31925E+02
   current step size =  3.00000E+00
 
 *** Warning 60124 (IMP+124)
       1 negative eigenvalues detected
 Iteration:   1     *|du|/|u| =  2.3582527E-02     *Ei/E0 =  1.2847881E-01

 ITERATION LIMIT reached, automatically REFORMING stiffness matrix...
 
 *** Warning 60124 (IMP+124)
       1 negative eigenvalues detected
 Iteration:   2     *|du|/|u| =  6.1781972E-03     *Ei/E0 =  9.4627775E-07

 ITERATION LIMIT reached, automatically REFORMING stiffness matrix...
 
 *** Warning 60124 (IMP+124)
       1 negative eigenvalues detected
 Iteration:   3     *|du|/|u| =  7.0433809E-03     *Ei/E0 =  1.9288260E-07

 ITERATION LIMIT reached, automatically REFORMING stiffness matrix...
 
 *** Warning 60124 (IMP+124)
       1 negative eigenvalues detected
 Iteration:   4     *|du|/|u| =  1.0525104E-02     *Ei/E0 =  1.4110260E-06

 ITERATION LIMIT reached, automatically REFORMING stiffness matrix...
 
 *** Warning 60124 (IMP+124)
       1 negative eigenvalues detected
 Iteration:   5     *|du|/|u| =  1.3391384E-02     *Ei/E0 =  3.0768509E-06

 ITERATION LIMIT reached, automatically REFORMING stiffness matrix...
 
 *** Warning 60124 (IMP+124)
       1 negative eigenvalues detected
 Iteration:   6     *|du|/|u| =  3.0261298E-02     *Ei/E0 =  1.1331825E-05

 ITERATION LIMIT reached, automatically REFORMING stiffness matrix...
 Iteration:   7     *|du|/|u| =  1.2464578E-03     *Ei/E0 =  3.7634313E-06

 ITERATION LIMIT reached, automatically REFORMING stiffness matrix...
 
 *** Warning 60124 (IMP+124)
       1 negative eigenvalues detected
 Iteration:   8     *|du|/|u| =  1.4093533E-03     *Ei/E0 =  2.1782123E-06

 ITERATION LIMIT reached, automatically REFORMING stiffness matrix...
 
 *** Warning 60124 (IMP+124)
       1 negative eigenvalues detected
 Iteration:   9     *|du|/|u| =  1.9553304E-03     *Ei/E0 =  4.1885676E-07

 ITERATION LIMIT reached, automatically REFORMING stiffness matrix...
 
 *** Warning 60124 (IMP+124)
       1 negative eigenvalues detected
 Iteration:  10     *|du|/|u| =  3.2213621E-03     *Ei/E0 =  5.6927744E-07

 ITERATION LIMIT reached, automatically REFORMING stiffness matrix...
 
 *** Warning 60124 (IMP+124)
       1 negative eigenvalues detected
 Iteration:  11     *|du|/|u| =  4.2278255E-03     *Ei/E0 =  1.2380412E-06

 ITERATION LIMIT reached, automatically REFORMING stiffness matrix...
 Iteration:  12     *|du|/|u| =  3.0115660E-03     *Ei/E0 =  2.9826161E-06

 ITERATION LIMIT reached, automatically REFORMING stiffness matrix...
 
 *** Warning 60124 (IMP+124)
       1 negative eigenvalues detected
 Iteration:  13     *|du|/|u| =  9.4408348E-04     *Ei/E0 =  1.2464315E-06

 Equilibrium iterations summary step    105 t= 1.3192E+02      08/13/20 09:34:13
    Number of iterations to converge         =          13
    Number of stiffness reformations         =          12
    Number of right hand side evaluations    =         178

 Convergence detected as a combination of
     1. Ratio of euclidian displacement translational norms          
        Value =   9.4408E-04 vs Tolerance =   1.0000E-03
     2. Ratio of euclidian energy       translational norms          
        Value =   1.2464E-06 vs Tolerance =   1.0000E-04
   24653 t 1.3192E+02 dt 3.00E+00 write d3plot file            08/13/20 09:34:13

 BEGIN implicit statics  step    106 t= 1.3492E+02             08/13/20 09:34:13
 ============================================================
                time =  1.34925E+02
   current step size =  3.00000E+00
 
 *** Warning 60124 (IMP+124)
       1 negative eigenvalues detected
 Iteration:   1     *|du|/|u| =  2.3260483E-02     *Ei/E0 =  1.2848300E-01

 ITERATION LIMIT reached, automatically REFORMING stiffness matrix...
 Iteration:   2     *|du|/|u| =  7.9525001E-03     *Ei/E0 =  7.5102482E-04

 ITERATION LIMIT reached, automatically REFORMING stiffness matrix...
 Iteration:   3     *|du|/|u| =  4.3381503E-04     *Ei/E0 =  1.7771334E-05

 Equilibrium iterations summary step    106 t= 1.3492E+02      08/13/20 09:34:15
    Number of iterations to converge         =           3
    Number of stiffness reformations         =           2
    Number of right hand side evaluations    =          12

 Convergence detected as a combination of
     1. Ratio of euclidian displacement translational norms          
        Value =   4.3382E-04 vs Tolerance =   1.0000E-03
     2. Ratio of euclidian energy       translational norms          
        Value =   1.7771E-05 vs Tolerance =   1.0000E-04
   24666 t 1.3492E+02 dt 3.00E+00 write d3plot file            08/13/20 09:34:15

 BEGIN implicit statics  step    107 t= 1.3792E+02             08/13/20 09:34:15
 ============================================================
                time =  1.37925E+02
   current step size =  3.00000E+00
 Iteration:   1     *|du|/|u| =  2.2656118E-02     *Ei/E0 =  1.2852145E-01

 ITERATION LIMIT reached, automatically REFORMING stiffness matrix...
 Iteration:   2     *|du|/|u| =  2.2678945E-03     *Ei/E0 =  2.2315554E-04

 ITERATION LIMIT reached, automatically REFORMING stiffness matrix...
 Iteration:   3     *|du|/|u| =  9.4211428E-04     *Ei/E0 =  2.4919736E-05

 Equilibrium iterations summary step    107 t= 1.3792E+02      08/13/20 09:34:17
    Number of iterations to converge         =           3
    Number of stiffness reformations         =           2
    Number of right hand side evaluations    =           8

 Convergence detected as a combination of
     1. Ratio of euclidian displacement translational norms          
        Value =   9.4211E-04 vs Tolerance =   1.0000E-03
     2. Ratio of euclidian energy       translational norms          
        Value =   2.4920E-05 vs Tolerance =   1.0000E-04
   24675 t 1.3792E+02 dt 3.00E+00 write d3plot file            08/13/20 09:34:17

 BEGIN implicit statics  step    108 t= 1.4092E+02             08/13/20 09:34:17
 ============================================================
                time =  1.40925E+02
   current step size =  3.00000E+00
 Iteration:   1     *|du|/|u| =  2.2265788E-02     *Ei/E0 =  1.2855549E-01

 ITERATION LIMIT reached, automatically REFORMING stiffness matrix...
 Iteration:   2     *|du|/|u| =  1.4610274E-03     *Ei/E0 =  2.2751220E-04

 ITERATION LIMIT reached, automatically REFORMING stiffness matrix...
 Iteration:   3     *|du|/|u| =  7.7948403E-04     *Ei/E0 =  6.6468009E-05

 Equilibrium iterations summary step    108 t= 1.4092E+02      08/13/20 09:34:19
    Number of iterations to converge         =           3
    Number of stiffness reformations         =           2
    Number of right hand side evaluations    =           8

 Convergence detected as a combination of
     1. Ratio of euclidian displacement translational norms          
        Value =   7.7948E-04 vs Tolerance =   1.0000E-03
     2. Ratio of euclidian energy       translational norms          
        Value =   6.6468E-05 vs Tolerance =   1.0000E-04
   24684 t 1.4092E+02 dt 3.00E+00 write d3plot file            08/13/20 09:34:19

 BEGIN implicit statics  step    109 t= 1.4392E+02             08/13/20 09:34:19
 ============================================================
                time =  1.43925E+02
   current step size =  3.00000E+00
 Iteration:   1     *|du|/|u| =  2.2215656E-02     *Ei/E0 =  1.2871779E-01

 ITERATION LIMIT reached, automatically REFORMING stiffness matrix...
 
 *** Warning 60124 (IMP+124)
       3 negative eigenvalues detected
 Iteration:   2     *|du|/|u| =  1.9963576E-02     *Ei/E0 =  1.9368559E-03

 ITERATION LIMIT reached, automatically REFORMING stiffness matrix...
 
 *** Warning 60124 (IMP+124)
       2 negative eigenvalues detected
 Iteration:   3     *|du|/|u| =  7.9490308E-03     *Ei/E0 =  9.5254011E-05

 ITERATION LIMIT reached, automatically REFORMING stiffness matrix...
 
 *** Warning 60124 (IMP+124)
       2 negative eigenvalues detected
 Iteration:   4     *|du|/|u| =  9.1860796E-03     *Ei/E0 =  1.7471855E-04

 ITERATION LIMIT reached, automatically REFORMING stiffness matrix...
 
 *** Warning 60124 (IMP+124)
       2 negative eigenvalues detected
 Iteration:   5     *|du|/|u| =  1.2199215E-02     *Ei/E0 =  4.5665721E-04

 ITERATION LIMIT reached, automatically REFORMING stiffness matrix...
 
 *** Warning 60124 (IMP+124)
       2 negative eigenvalues detected
 Iteration:   6     *|du|/|u| =  3.1191627E-02     *Ei/E0 =  1.8605899E-03

 ITERATION LIMIT reached, automatically REFORMING stiffness matrix...
 
 *** Warning 60124 (IMP+124)
       1 negative eigenvalues detected
 Iteration:   7     *|du|/|u| =  1.3203050E-02     *Ei/E0 =  1.7798882E-03

 ITERATION LIMIT reached, automatically REFORMING stiffness matrix...
 Iteration:   8     *|du|/|u| =  2.3632669E-03     *Ei/E0 =  4.4243296E-04

 ITERATION LIMIT reached, automatically REFORMING stiffness matrix...
 Iteration:   9     *|du|/|u| =  1.1106305E-03     *Ei/E0 =  2.1332022E-04

 ITERATION LIMIT reached, automatically REFORMING stiffness matrix...
 Iteration:  10     *|du|/|u| =  4.9837845E-04     *Ei/E0 =  4.2212304E-05

 Equilibrium iterations summary step    109 t= 1.4392E+02      08/13/20 09:34:27
    Number of iterations to converge         =          10
    Number of stiffness reformations         =           9
    Number of right hand side evaluations    =          88

 Convergence detected as a combination of
     1. Ratio of euclidian displacement translational norms          
        Value =   4.9838E-04 vs Tolerance =   1.0000E-03
     2. Ratio of euclidian energy       translational norms          
        Value =   4.2212E-05 vs Tolerance =   1.0000E-04
   24773 t 1.4392E+02 dt 3.00E+00 write d3plot file            08/13/20 09:34:28

 BEGIN implicit statics  step    110 t= 1.4692E+02             08/13/20 09:34:28
 ============================================================
                time =  1.46925E+02
   current step size =  3.00000E+00
 
 *** Warning 60124 (IMP+124)
       1 negative eigenvalues detected
 Iteration:   1     *|du|/|u| =  2.1910597E-02     *Ei/E0 =  1.2856295E-01

 ITERATION LIMIT reached, automatically REFORMING stiffness matrix...
 
 *** Warning 60124 (IMP+124)
       1 negative eigenvalues detected
 Iteration:   2     *|du|/|u| =  3.2932619E-02     *Ei/E0 =  3.3025744E-03

 ITERATION LIMIT reached, automatically REFORMING stiffness matrix...
 
 *** Warning 60124 (IMP+124)
       1 negative eigenvalues detected
 Iteration:   3     *|du|/|u| =  1.1103832E-02     *Ei/E0 =  1.4826655E-03

 ITERATION LIMIT reached, automatically REFORMING stiffness matrix...
 
 *** Warning 60124 (IMP+124)
       2 negative eigenvalues detected
 Iteration:   4     *|du|/|u| =  5.0286292E-03     *Ei/E0 =  4.0890250E-04

 ITERATION LIMIT reached, automatically REFORMING stiffness matrix...
 
 *** Warning 60124 (IMP+124)
       1 negative eigenvalues detected
 Iteration:   5     *|du|/|u| =  4.8936993E-03     *Ei/E0 =  5.9208191E-04

 ITERATION LIMIT reached, automatically REFORMING stiffness matrix...
 
 *** Warning 60124 (IMP+124)
       1 negative eigenvalues detected
 Iteration:   6     *|du|/|u| =  2.0132794E-03     *Ei/E0 =  2.6480485E-04

 ITERATION LIMIT reached, automatically REFORMING stiffness matrix...
 
 *** Warning 60124 (IMP+124)
       1 negative eigenvalues detected
 Iteration:   7     *|du|/|u| =  1.6750303E-03     *Ei/E0 =  4.1361165E-05

 ITERATION LIMIT reached, automatically REFORMING stiffness matrix...
 
 *** Warning 60124 (IMP+124)
       1 negative eigenvalues detected
 Iteration:   8     *|du|/|u| =  2.2500353E-03     *Ei/E0 =  1.2439580E-04

 ITERATION LIMIT reached, automatically REFORMING stiffness matrix...
 
 *** Warning 60124 (IMP+124)
       1 negative eigenvalues detected
 Iteration:   9     *|du|/|u| =  4.9791591E-03     *Ei/E0 =  4.7345065E-04

 ITERATION LIMIT reached, automatically REFORMING stiffness matrix...
 Iteration:  10     *|du|/|u| =  4.9454646E-03     *Ei/E0 =  6.1356129E-04

 ITERATION LIMIT reached, automatically REFORMING stiffness matrix...
 Iteration:  11     *|du|/|u| =  2.7561012E-03     *Ei/E0 =  1.9339252E-04

 ITERATION LIMIT reached, automatically REFORMING stiffness matrix...
 Iteration:  12     *|du|/|u| =  9.3329818E-04     *Ei/E0 =  1.0941183E-04

 ITERATION LIMIT reached, automatically REFORMING stiffness matrix...
 Iteration:  13     *|du|/|u| =  9.1279962E-04     *Ei/E0 =  6.9701146E-05

 Equilibrium iterations summary step    110 t= 1.4692E+02      08/13/20 09:34:37
    Number of iterations to converge         =          13
    Number of stiffness reformations         =          12
    Number of right hand side evaluations    =          72

 Convergence detected as a combination of
     1. Ratio of euclidian displacement translational norms          
        Value =   9.1280E-04 vs Tolerance =   1.0000E-03
     2. Ratio of euclidian energy       translational norms          
        Value =   6.9701E-05 vs Tolerance =   1.0000E-04
   24846 t 1.4692E+02 dt 3.00E+00 write d3plot file            08/13/20 09:34:37

 BEGIN implicit statics  step    111 t= 1.4846E+02             08/13/20 09:34:37
 ============================================================
                time =  1.48463E+02
   current step size =  1.53822E+00
 Iteration:   1     *|du|/|u| =  1.0681547E-02     *Ei/E0 =  3.3866545E-02

 ITERATION LIMIT reached, automatically REFORMING stiffness matrix...
 
 *** Warning 60124 (IMP+124)
       1 negative eigenvalues detected
 Iteration:   2     *|du|/|u| =  1.2153746E-02     *Ei/E0 =  8.2730855E-05

 ITERATION LIMIT reached, automatically REFORMING stiffness matrix...
 
 *** Warning 60124 (IMP+124)
       1 negative eigenvalues detected
 Iteration:   3     *|du|/|u| =  2.1553476E-03     *Ei/E0 =  1.7430894E-04

 ITERATION LIMIT reached, automatically REFORMING stiffness matrix...
 
 *** Warning 60124 (IMP+124)
       1 negative eigenvalues detected
 Iteration:   4     *|du|/|u| =  3.9427196E-03     *Ei/E0 =  2.0527573E-04

 ITERATION LIMIT reached, automatically REFORMING stiffness matrix...
 Iteration:   5     *|du|/|u| =  8.2250824E-02     *Ei/E0 =  6.9884477E-03

 ITERATION LIMIT reached, automatically REFORMING stiffness matrix...
 Iteration:   6     *|du|/|u| =  6.8986466E-04     *Ei/E0 =  7.4797777E-05

 Equilibrium iterations summary step    111 t= 1.4846E+02      08/13/20 09:34:42
    Number of iterations to converge         =           6
    Number of stiffness reformations         =           5
    Number of right hand side evaluations    =          46

 Convergence detected as a combination of
     1. Ratio of euclidian displacement translational norms          
        Value =   6.8986E-04 vs Tolerance =   1.0000E-03
     2. Ratio of euclidian energy       translational norms          
        Value =   7.4798E-05 vs Tolerance =   1.0000E-04
   24893 t 1.4846E+02 dt 1.54E+00 write d3plot file            08/13/20 09:34:42

 BEGIN implicit statics  step    112 t= 1.5000E+02             08/13/20 09:34:42
 ============================================================
                time =  1.50000E+02
   current step size =  1.53722E+00
 Iteration:   1     *|du|/|u| =  1.0624968E-02     *Ei/E0 =  3.3760918E-02

 ITERATION LIMIT reached, automatically REFORMING stiffness matrix...
 Iteration:   2     *|du|/|u| =  1.4569074E-03     *Ei/E0 =  1.1996403E-04

 ITERATION LIMIT reached, automatically REFORMING stiffness matrix...
 Iteration:   3     *|du|/|u| =  4.2807068E-04     *Ei/E0 =  1.9837472E-05

 Equilibrium iterations summary step    112 t= 1.5000E+02      08/13/20 09:34:44
    Number of iterations to converge         =           3
    Number of stiffness reformations         =           2
    Number of right hand side evaluations    =          10

 Convergence detected as a combination of
     1. Ratio of euclidian displacement translational norms          
        Value =   4.2807E-04 vs Tolerance =   1.0000E-03
     2. Ratio of euclidian energy       translational norms          
        Value =   1.9837E-05 vs Tolerance =   1.0000E-04
   24904 t 1.5000E+02 dt 1.54E+00 write d3plot file            08/13/20 09:34:44
 
 *** termination time reached ***
   24904 t 1.5000E+02 dt 1.54E+00 write d3dump01 file          08/13/20 09:34:44

 N o r m a l    t e r m i n a t i o n                          08/13/20 09:34:44

 S t o r a g e   a l l o c a t i o n   

 Memory required to complete solution   :    1562K
 Linear Alg dynamically allocated memory:    3112K
 Additional dynamically allocated memory:    1788K
                                   Total:    6461K

 T i m i n g   i n f o r m a t i o n
                        CPU(seconds)   %CPU  Clock(seconds) %Clock
  ----------------------------------------------------------------
  Keyword Processing ... 1.0000E+00    0.05     7.4000E-01    0.04
    KW Reading ......... 0.0000E+00    0.00     1.0700E-01    0.01
    KW Writing ......... 0.0000E+00    0.00     4.8000E-02    0.00
  Initialization ....... 1.0000E+00    0.05     1.9540E+00    0.10
    Init Proc Phase 1 .. 0.0000E+00    0.00     3.5900E-01    0.02
    Init Proc Phase 2 .. 0.0000E+00    0.00     2.1000E-02    0.00
  Element processing ... 8.3600E+02   44.00     8.5785E+02   45.15
    Solids ............. 8.3500E+02   43.95     8.5729E+02   45.12
  Binary databases ..... 0.0000E+00    0.00     2.2100E-01    0.01
  ASCII database ....... 0.0000E+00    0.00     3.5900E-01    0.02
  Contact algorithm .... 0.0000E+00    0.00     1.4500E-01    0.01
  Rigid Bodies ......... 0.0000E+00    0.00     1.1200E-01    0.01
  Implicit ............. 1.0000E+00    0.05     1.3080E+00    0.07
  Implicit Nonlinear ... 3.1100E+02   16.37     2.9879E+02   15.73
    Imp. NL force mod .. 2.8700E+02   15.11     2.7504E+02   14.48
  Implicit Lin. Alg. ... 7.4600E+02   39.26     7.3266E+02   38.56
    Imp. LA Mtx Assemb . 3.6900E+02   19.42     3.9067E+02   20.56
    Imp. LA Factor ..... 3.6000E+02   18.95     3.3123E+02   17.43
    Imp. LA Solve ...... 1.7000E+01    0.89     1.0677E+01    0.56
  Time step size ....... 0.0000E+00    0.00     2.3000E-01    0.01
  Group force file ..... 0.0000E+00    0.00     1.3300E-01    0.01
  Others ............... 2.0000E+00    0.11     3.1690E+00    0.17
  Misc. 1 .............. 0.0000E+00    0.00     1.6900E-01    0.01
  Misc. 3 .............. 0.0000E+00    0.00     4.1000E-02    0.00
  Misc. 4 .............. 2.0000E+00    0.11     2.1600E+00    0.11
  ----------------------------------------------------------------
  T o t a l s            1.9000E+03  100.00     1.9000E+03  100.00

 Problem time       =    1.5000E+02
 Problem cycle      =     24904
 Total CPU time     =      1900 seconds (   0 hours 31 minutes 40 seconds)
 CPU time per zone cycle  =      14155.397 nanoseconds
 Clock time per zone cycle=      14150.579 nanoseconds

 Number of CPU's    8
 NLQ used/max     136/  136
 Start time   08/13/2020 09:03:06  
 End time     08/13/2020 09:34:44  
 Elapsed time    1898 seconds for   24904 cycles using  8 SMP threads
             (      0 hour  31 minutes 38 seconds)

 N o r m a l    t e r m i n a t i o n                          08/13/20 09:34:44
